<?xml version="1.0" encoding="UTF-8"?>

<!-- generated on 2026-06-01 16:03:26.681249 by Eclipse SUMO randomTrips.py v1_27_0+0000-e238ea04b71
<configuration>
    <net-file value="data/map/curitiba.net.xml"/>
    <route-file value="data/traffic/random_peak.rou.xml"/>
    <period value="2.0"/>
</configuration>
-->

<routes xmlns:xsi="http://www.w3.org/2001/XMLSchema-instance" xsi:noNamespaceSchemaLocation="http://sumo.dlr.de/xsd/routes_file.xsd">
    <trip id="0" depart="0.00" from="343738672#8" to="-124792700#2"/>
    <trip id="1" depart="2.00" from="-99450045#1" to="-53814837#5"/>
    <trip id="2" depart="4.00" from="435228453#6" to="371941808"/>
    <trip id="3" depart="6.00" from="663076721#0" to="-24576646#0"/>
    <trip id="4" depart="8.00" from="1524235963" to="-126271638#1"/>
    <trip id="5" depart="10.00" from="-53813390#6" to="231107718#8"/>
    <trip id="6" depart="12.00" from="-124804195#1" to="-52708908#30"/>
    <trip id="7" depart="14.00" from="356125167#0" to="249519085#1"/>
    <trip id="8" depart="16.00" from="-53813392#1" to="29464176#1"/>
    <trip id="9" depart="18.00" from="52707374#5" to="-1107163537#0"/>
    <trip id="10" depart="20.00" from="524285776#4" to="39513371#1"/>
    <trip id="11" depart="22.00" from="1192228399#9" to="-46208607#7"/>
    <trip id="12" depart="24.00" from="776123665#1" to="1192228400#9"/>
    <trip id="13" depart="26.00" from="-24827423" to="-277739807#11"/>
    <trip id="14" depart="28.00" from="53813391#8" to="314481878"/>
    <trip id="15" depart="30.00" from="52707354#1" to="421742147#5"/>
    <trip id="16" depart="32.00" from="24601037" to="913039715#1"/>
    <trip id="17" depart="34.00" from="126274294#5" to="252574746#4"/>
    <trip id="18" depart="36.00" from="52708917#13" to="331568010#1"/>
    <trip id="19" depart="38.00" from="545364948#9" to="289957316"/>
    <trip id="20" depart="40.00" from="396813960#1" to="-132844023#4"/>
    <trip id="21" depart="42.00" from="-53814838#0" to="1066803876#1"/>
    <trip id="22" depart="44.00" from="-222386034#12" to="-655915039#1"/>
    <trip id="23" depart="46.00" from="-277739807#24" to="1009725215#1"/>
    <trip id="24" depart="48.00" from="343738669#11" to="125542069#2"/>
    <trip id="25" depart="50.00" from="126271629#1" to="-52710290#2"/>
    <trip id="26" depart="52.00" from="-92047303#0" to="71184882#2"/>
    <trip id="27" depart="54.00" from="356102528#1" to="329346464#0"/>
    <trip id="28" depart="56.00" from="-48310677#0" to="421742147#0"/>
    <trip id="29" depart="58.00" from="-46208618#17" to="126277925#1"/>
    <trip id="30" depart="60.00" from="942422878#4" to="355714079#2"/>
    <trip id="31" depart="62.00" from="260543613#0" to="382423717#1"/>
    <trip id="32" depart="64.00" from="52710292#7" to="48310676#3"/>
    <trip id="33" depart="66.00" from="-53814841#5" to="-126274283"/>
    <trip id="34" depart="68.00" from="1108070679#0" to="-99449517#9"/>
    <trip id="35" depart="70.00" from="-52710262#3" to="725981230"/>
    <trip id="36" depart="72.00" from="655897911" to="1134137431#0"/>
    <trip id="37" depart="74.00" from="356134336#2" to="1339926516#0"/>
    <trip id="38" depart="76.00" from="700028124" to="195718577#2"/>
    <trip id="39" depart="78.00" from="-913847619" to="-749651782"/>
    <trip id="40" depart="80.00" from="264923445#3" to="-92119148#0"/>
    <trip id="41" depart="82.00" from="29430884#1" to="663076766#0"/>
    <trip id="42" depart="84.00" from="1339926521" to="-53813397#4"/>
    <trip id="43" depart="86.00" from="99450046#8" to="231807292#6"/>
    <trip id="44" depart="88.00" from="-24600463#2" to="-1339909981"/>
    <trip id="45" depart="90.00" from="-29431397#5" to="343540920#22"/>
    <trip id="46" depart="92.00" from="48360948#1" to="158127922#0"/>
    <trip id="47" depart="94.00" from="-159044275#2" to="1262797970#1"/>
    <trip id="48" depart="96.00" from="99450045#5" to="24576630#0"/>
    <trip id="49" depart="98.00" from="912642299#0" to="545364949#0"/>
    <trip id="50" depart="100.00" from="-1154843264" to="398387500"/>
    <trip id="51" depart="102.00" from="375552632#4" to="24775110#1"/>
    <trip id="52" depart="104.00" from="-91887460#1" to="355714080#5"/>
    <trip id="53" depart="106.00" from="-29431404#1" to="161320945#7"/>
    <trip id="54" depart="108.00" from="175091975#3" to="758187579#3"/>
    <trip id="55" depart="110.00" from="655871366" to="-921619224"/>
    <trip id="56" depart="112.00" from="231103924#2" to="-48360943"/>
    <trip id="57" depart="114.00" from="698981470" to="629645720"/>
    <trip id="58" depart="116.00" from="1069087682#3" to="354612980#1"/>
    <trip id="59" depart="118.00" from="317975013#0" to="-46208601#6"/>
    <trip id="60" depart="120.00" from="46208620#7" to="24783521#1"/>
    <trip id="61" depart="122.00" from="48310682#0" to="24576673#0"/>
    <trip id="62" depart="124.00" from="-1004721184" to="1155317927#1"/>
    <trip id="63" depart="126.00" from="-121846080#9" to="701455154#2"/>
    <trip id="64" depart="128.00" from="657095942#0" to="52708921#4"/>
    <trip id="65" depart="130.00" from="1107163515#1" to="-1524235971"/>
    <trip id="66" depart="132.00" from="655951147#2" to="739461147#0"/>
    <trip id="67" depart="134.00" from="-231807296#2" to="231102085#0"/>
    <trip id="68" depart="136.00" from="-161320935#0" to="46208618#24"/>
    <trip id="69" depart="138.00" from="465279493#2" to="-356388211#3"/>
    <trip id="70" depart="140.00" from="231093229" to="249539950#27"/>
    <trip id="71" depart="142.00" from="-914922102" to="638082302#5"/>
    <trip id="72" depart="144.00" from="1524426322#0" to="-52711936#1"/>
    <trip id="73" depart="146.00" from="24775110#5" to="421742147#7"/>
    <trip id="74" depart="148.00" from="-52708907#31" to="1108070684#4"/>
    <trip id="75" depart="150.00" from="99450042#1" to="356132818#3"/>
    <trip id="76" depart="152.00" from="161392540#3" to="232888339#1"/>
    <trip id="77" depart="154.00" from="-314481877#1" to="-53814841#7"/>
    <trip id="78" depart="156.00" from="1187905877#1" to="29431409#2"/>
    <trip id="79" depart="158.00" from="-53815356#1" to="-53813398#5"/>
    <trip id="80" depart="160.00" from="-161320945#3" to="343540927#7"/>
    <trip id="81" depart="162.00" from="-53814841#4" to="671139407#3"/>
    <trip id="82" depart="164.00" from="53815390#1" to="-162606861#1"/>
    <trip id="83" depart="166.00" from="-655915039#3" to="359561460#2"/>
    <trip id="84" depart="168.00" from="-52710292#10" to="-358277156#2"/>
    <trip id="85" depart="170.00" from="706220889#1" to="285877770#2"/>
    <trip id="86" depart="172.00" from="229368627" to="48359723#4"/>
    <trip id="87" depart="174.00" from="52707354#4" to="-52708891#1"/>
    <trip id="88" depart="176.00" from="-257956761#2" to="160737026#2"/>
    <trip id="89" depart="178.00" from="158125844#0" to="223784343#3"/>
    <trip id="90" depart="180.00" from="421376715#1" to="371941802#11"/>
    <trip id="91" depart="182.00" from="92119148#0" to="-277739807#9"/>
    <trip id="92" depart="184.00" from="1355121273" to="1214123449#1"/>
    <trip id="93" depart="186.00" from="545364948#9" to="-758187585#0"/>
    <trip id="94" depart="188.00" from="-491064186#1" to="163603470#0"/>
    <trip id="95" depart="190.00" from="1520987157#3" to="1011937880#0"/>
    <trip id="96" depart="192.00" from="-715606134#1" to="700028199#5"/>
    <trip id="97" depart="194.00" from="161884112" to="546565130#3"/>
    <trip id="98" depart="196.00" from="249539950#14" to="-1356434781#3"/>
    <trip id="99" depart="198.00" from="99498179#5" to="52710262#1"/>
    <trip id="100" depart="200.00" from="87348787" to="700187123#1"/>
    <trip id="101" depart="202.00" from="53813396#0" to="-48310677#16"/>
    <trip id="102" depart="204.00" from="231101474#0" to="-53813390#0"/>
    <trip id="103" depart="206.00" from="1346157041#3" to="-158125844#4"/>
    <trip id="104" depart="208.00" from="126274296#0" to="923769964#2"/>
    <trip id="105" depart="210.00" from="-914982609#0" to="48359722#4"/>
    <trip id="106" depart="212.00" from="186406391#2" to="158127925#2"/>
    <trip id="107" depart="214.00" from="776883019#0" to="99450043#2"/>
    <trip id="108" depart="216.00" from="257956761#2" to="397652165#2"/>
    <trip id="109" depart="218.00" from="-46208596#3" to="1070035668#5"/>
    <trip id="110" depart="220.00" from="85389624#5" to="29422710#4"/>
    <trip id="111" depart="222.00" from="24783529#5" to="46201986#2"/>
    <trip id="112" depart="224.00" from="-1409280514#2" to="29431396#2"/>
    <trip id="113" depart="226.00" from="231103928#2" to="53814836#1"/>
    <trip id="114" depart="228.00" from="-46208601#15" to="79691012#6"/>
    <trip id="115" depart="230.00" from="-222386034#3" to="-510323814#3"/>
    <trip id="116" depart="232.00" from="29464526#0" to="371941804#1"/>
    <trip id="117" depart="234.00" from="-604767182#1" to="-33037082#0"/>
    <trip id="118" depart="236.00" from="663076697#2" to="-74383931#0"/>
    <trip id="119" depart="238.00" from="29464524#0" to="333068567#3"/>
    <trip id="120" depart="240.00" from="150393826#5" to="29430890#0"/>
    <trip id="121" depart="242.00" from="232922863#1" to="706220885#0"/>
    <trip id="122" depart="244.00" from="-52708913#19" to="397652163#0"/>
    <trip id="123" depart="246.00" from="-655951147#2" to="1339926516#1"/>
    <trip id="124" depart="248.00" from="359642542" to="1098152911"/>
    <trip id="125" depart="250.00" from="1108070684#2" to="46208601#1"/>
    <trip id="126" depart="252.00" from="-161856223#2" to="195655598#1"/>
    <trip id="127" depart="254.00" from="99497960#6" to="99450045#3"/>
    <trip id="128" depart="256.00" from="-161885234#0" to="-53813389#4"/>
    <trip id="129" depart="258.00" from="-914982609#0" to="706220878"/>
    <trip id="130" depart="260.00" from="659237713#0" to="657095949#1"/>
    <trip id="131" depart="262.00" from="126271616#1" to="-46208618#13"/>
    <trip id="132" depart="264.00" from="52708923#1" to="396813966#0"/>
    <trip id="133" depart="266.00" from="329346464#1" to="93125231#1"/>
    <trip id="134" depart="268.00" from="356133838#16" to="-1107728287#2"/>
    <trip id="135" depart="270.00" from="52708898#8" to="1098152909#0"/>
    <trip id="136" depart="272.00" from="357220477#0" to="713823599#0"/>
    <trip id="137" depart="274.00" from="-358276739#5" to="-29548992#3"/>
    <trip id="138" depart="276.00" from="-289829976#2" to="25465013#3"/>
    <trip id="139" depart="278.00" from="-978293254#1" to="316394251#3"/>
    <trip id="140" depart="280.00" from="397652163#14" to="-52708921#10"/>
    <trip id="141" depart="282.00" from="343540935#0" to="-923769964#3"/>
    <trip id="142" depart="284.00" from="231102085#7" to="671139407#2"/>
    <trip id="143" depart="286.00" from="53813390#6" to="-249539949#19"/>
    <trip id="144" depart="288.00" from="158125844#0" to="1008705550#3"/>
    <trip id="145" depart="290.00" from="-1065288618#2" to="47515622#0"/>
    <trip id="146" depart="292.00" from="343738669#9" to="-92047315#5"/>
    <trip id="147" depart="294.00" from="43593224#7" to="252574746#1"/>
    <trip id="148" depart="296.00" from="159044275#0" to="-1108070687#0"/>
    <trip id="149" depart="298.00" from="-163099036#8" to="660019007#0"/>
    <trip id="150" depart="300.00" from="670931443#0" to="249539942#1"/>
    <trip id="151" depart="302.00" from="52708925#0" to="29430884#0"/>
    <trip id="152" depart="304.00" from="-401419915" to="-356133262#6"/>
    <trip id="153" depart="306.00" from="1107163534#0" to="663076771#0"/>
    <trip id="154" depart="308.00" from="48360973#0" to="545364949#0"/>
    <trip id="155" depart="310.00" from="663076769#0" to="-52710292#13"/>
    <trip id="156" depart="312.00" from="-712664807#3" to="-289829956#1"/>
    <trip id="157" depart="314.00" from="48310682#9" to="662538177#0"/>
    <trip id="158" depart="316.00" from="1373391427#1" to="333068570#5"/>
    <trip id="159" depart="318.00" from="-46208596#1" to="701909253#0"/>
    <trip id="160" depart="320.00" from="55204885#0" to="913475187#0"/>
    <trip id="161" depart="322.00" from="52707383#2" to="659241076#1"/>
    <trip id="162" depart="324.00" from="-124791186#0" to="435228455#1"/>
    <trip id="163" depart="326.00" from="1157825342#1" to="70349231#0"/>
    <trip id="164" depart="328.00" from="513453956#0" to="55204885#6"/>
    <trip id="165" depart="330.00" from="52707383#10" to="-99449517#1"/>
    <trip id="166" depart="332.00" from="48359726#5" to="-29431404#0"/>
    <trip id="167" depart="334.00" from="629645722" to="53815390#1"/>
    <trip id="168" depart="336.00" from="-53813396#3" to="52708905#1"/>
    <trip id="169" depart="338.00" from="195655598#1" to="1107163540#2"/>
    <trip id="170" depart="340.00" from="48360968#5" to="-53815388#0"/>
    <trip id="171" depart="342.00" from="-124648007#2" to="-52708898#11"/>
    <trip id="172" depart="344.00" from="1154846448#3" to="55204912"/>
    <trip id="173" depart="346.00" from="85042410#9" to="1011937893#4"/>
    <trip id="174" depart="348.00" from="354612980#3" to="1356434778#0"/>
    <trip id="175" depart="350.00" from="91878484#3" to="24774120#3"/>
    <trip id="176" depart="352.00" from="71443353" to="-29548992#3"/>
    <trip id="177" depart="354.00" from="912302469" to="-48359735#5"/>
    <trip id="178" depart="356.00" from="818447514#20" to="-93125231#1"/>
    <trip id="179" depart="358.00" from="-29430647" to="161320945#5"/>
    <trip id="180" depart="360.00" from="421374898#1" to="1111181214"/>
    <trip id="181" depart="362.00" from="314481879#2" to="231807296#2"/>
    <trip id="182" depart="364.00" from="126300775#0" to="289956864#3"/>
    <trip id="183" depart="366.00" from="-768114883" to="397470412"/>
    <trip id="184" depart="368.00" from="-101401535#3" to="700183100#2"/>
    <trip id="185" depart="370.00" from="24774120#5" to="397773659#2"/>
    <trip id="186" depart="372.00" from="44867748#10" to="370094378#0"/>
    <trip id="187" depart="374.00" from="124791186#1" to="-162096211#0"/>
    <trip id="188" depart="376.00" from="357220478#1" to="1167537319"/>
    <trip id="189" depart="378.00" from="1107728291#2" to="53813396#13"/>
    <trip id="190" depart="380.00" from="397773658#0" to="1101617479"/>
    <trip id="191" depart="382.00" from="1107163539#3" to="1409280537#2"/>
    <trip id="192" depart="384.00" from="135079679#1" to="1070035666#1"/>
    <trip id="193" depart="386.00" from="-354299037#1" to="1524235965#2"/>
    <trip id="194" depart="388.00" from="715606126#1" to="371942745"/>
    <trip id="195" depart="390.00" from="664929060#2" to="33068457#22"/>
    <trip id="196" depart="392.00" from="1070035667#0" to="249539949#18"/>
    <trip id="197" depart="394.00" from="-1004633180" to="1049505883#0"/>
    <trip id="198" depart="396.00" from="159044286#2" to="29422713#5"/>
    <trip id="199" depart="398.00" from="356133838#9" to="223784230#0"/>
    <trip id="200" depart="400.00" from="161884104#5" to="-53813389#9"/>
    <trip id="201" depart="402.00" from="231091479#1" to="664311321#0"/>
    <trip id="202" depart="404.00" from="48360973#0" to="-48310685#0"/>
    <trip id="203" depart="406.00" from="-231107718#4" to="231829820#0"/>
    <trip id="204" depart="408.00" from="343540927#3" to="1192228399#4"/>
    <trip id="205" depart="410.00" from="52708905#15" to="46208598#0"/>
    <trip id="206" depart="412.00" from="370094378#1" to="-53814841#7"/>
    <trip id="207" depart="414.00" from="-52708905#5" to="-124791192#3"/>
    <trip id="208" depart="416.00" from="-700028191#2" to="231094633#2"/>
    <trip id="209" depart="418.00" from="53813396#2" to="-173545459"/>
    <trip id="210" depart="420.00" from="-52707385#6" to="39483155#5"/>
    <trip id="211" depart="422.00" from="231102780#8" to="-712664807#2"/>
    <trip id="212" depart="424.00" from="356134841#1" to="-1103531753#3"/>
    <trip id="213" depart="426.00" from="46208596#8" to="474243695#1"/>
    <trip id="214" depart="428.00" from="-289829976#10" to="158958944"/>
    <trip id="215" depart="430.00" from="-48359719#1" to="79642780"/>
    <trip id="216" depart="432.00" from="23185727#4" to="-1356434781#0"/>
    <trip id="217" depart="434.00" from="-712664807#0" to="53813396#16"/>
    <trip id="218" depart="436.00" from="186776870#6" to="513453956#0"/>
    <trip id="219" depart="438.00" from="358276739#5" to="942422866"/>
    <trip id="220" depart="440.00" from="29464526#3" to="75366764#2"/>
    <trip id="221" depart="442.00" from="663076698#7" to="33037128#4"/>
    <trip id="222" depart="444.00" from="397652165#2" to="231107718#3"/>
    <trip id="223" depart="446.00" from="52708917#29" to="249539949#18"/>
    <trip id="224" depart="448.00" from="663076761#0" to="452336637"/>
    <trip id="225" depart="450.00" from="231092958#0" to="-914922102"/>
    <trip id="226" depart="452.00" from="-706220871#2" to="343985726"/>
    <trip id="227" depart="454.00" from="465279493#2" to="232922868#1"/>
    <trip id="228" depart="456.00" from="340654729#1" to="1004633183"/>
    <trip id="229" depart="458.00" from="-185014679" to="1025358702"/>
    <trip id="230" depart="460.00" from="-976237963" to="1154411884#1"/>
    <trip id="231" depart="462.00" from="24775740#4" to="-39513371#1"/>
    <trip id="232" depart="464.00" from="-53815383#1" to="39453105#1"/>
    <trip id="233" depart="466.00" from="396890094#0" to="-160737025#14"/>
    <trip id="234" depart="468.00" from="1373391445#0" to="248803656"/>
    <trip id="235" depart="470.00" from="1486670649#0" to="-52710262#3"/>
    <trip id="236" depart="472.00" from="1509384138#0" to="670931471#1"/>
    <trip id="237" depart="474.00" from="29430646#0" to="39453110#1"/>
    <trip id="238" depart="476.00" from="53814842#2" to="465415653#0"/>
    <trip id="239" depart="478.00" from="126277911#1" to="-1103531753#6"/>
    <trip id="240" depart="480.00" from="121823817" to="46208601#9"/>
    <trip id="241" depart="482.00" from="53814835#5" to="758187579#0"/>
    <trip id="242" depart="484.00" from="150393826#11" to="46201976#1"/>
    <trip id="243" depart="486.00" from="249519083#0" to="314481875"/>
    <trip id="244" depart="488.00" from="-53813392#2" to="-53813397#5"/>
    <trip id="245" depart="490.00" from="161320945#0" to="-126271634#3"/>
    <trip id="246" depart="492.00" from="117119226#1" to="375552626#3"/>
    <trip id="247" depart="494.00" from="1356434782" to="-48310673#4"/>
    <trip id="248" depart="496.00" from="223784230#11" to="-356138180"/>
    <trip id="249" depart="498.00" from="333068567#7" to="-126271629#0"/>
    <trip id="250" depart="500.00" from="132844023#1" to="277739807#14"/>
    <trip id="251" depart="502.00" from="-359642542" to="222386034#9"/>
    <trip id="252" depart="504.00" from="-1339926516#1" to="126277924#0"/>
    <trip id="253" depart="506.00" from="-52710269#1" to="1156852187#2"/>
    <trip id="254" depart="508.00" from="46208618#5" to="126277924#0"/>
    <trip id="255" depart="510.00" from="46208598#5" to="52708921#7"/>
    <trip id="256" depart="512.00" from="-749651782" to="-231107718#7"/>
    <trip id="257" depart="514.00" from="-121846080#8" to="24783521#1"/>
    <trip id="258" depart="516.00" from="99498354#3" to="121846088#0-AddedOnRampEdge"/>
    <trip id="259" depart="518.00" from="356126884#1" to="48310685#3"/>
    <trip id="260" depart="520.00" from="356126885#9" to="46208605#1"/>
    <trip id="261" depart="522.00" from="75366764#0" to="-52708912#1"/>
    <trip id="262" depart="524.00" from="-122741943#3" to="-46208601#2"/>
    <trip id="263" depart="526.00" from="-341664834" to="359642542"/>
    <trip id="264" depart="528.00" from="266697575#0" to="-53813396#2"/>
    <trip id="265" depart="530.00" from="39513371#1" to="466545813#1"/>
    <trip id="266" depart="532.00" from="-469975524#8" to="317975013#4"/>
    <trip id="267" depart="534.00" from="458685556#2" to="-29548969#6"/>
    <trip id="268" depart="536.00" from="52708907#12" to="843616573"/>
    <trip id="269" depart="538.00" from="-29429867#2" to="-125381952"/>
    <trip id="270" depart="540.00" from="1107180168" to="371942746"/>
    <trip id="271" depart="542.00" from="79690770#1" to="1339926554"/>
    <trip id="272" depart="544.00" from="397647521#3" to="-222386034#0"/>
    <trip id="273" depart="546.00" from="38893124#1" to="343540920#20"/>
    <trip id="274" depart="548.00" from="-277739809#0" to="48310143#10"/>
    <trip id="275" depart="550.00" from="-314481877#1" to="92047340#1"/>
    <trip id="276" depart="552.00" from="48359719#2" to="121846057#0"/>
    <trip id="277" depart="554.00" from="159044279#0" to="126271648#6"/>
    <trip id="278" depart="556.00" from="231107716#1" to="1214381502#1"/>
    <trip id="279" depart="558.00" from="53813396#16" to="52708909#21"/>
    <trip id="280" depart="560.00" from="-285877769#2" to="79691012#6"/>
    <trip id="281" depart="562.00" from="343738669#10" to="52708917#21"/>
    <trip id="282" depart="564.00" from="396890099#5" to="161392536#2"/>
    <trip id="283" depart="566.00" from="429543355#4" to="84945416"/>
    <trip id="284" depart="568.00" from="-930862035#3" to="52707374#1"/>
    <trip id="285" depart="570.00" from="24774120#2" to="231101474#0"/>
    <trip id="286" depart="572.00" from="161320942#1" to="425091530"/>
    <trip id="287" depart="574.00" from="-920702780#1" to="53814835#0"/>
    <trip id="288" depart="576.00" from="52708917#32" to="-24576379#2"/>
    <trip id="289" depart="578.00" from="659241074#2" to="-712664807#1"/>
    <trip id="290" depart="580.00" from="223783966#1" to="330109099#3"/>
    <trip id="291" depart="582.00" from="126274296#0" to="-126271634#1"/>
    <trip id="292" depart="584.00" from="53813397#3" to="-48360967#0"/>
    <trip id="293" depart="586.00" from="-52710269#6" to="491064183#2"/>
    <trip id="294" depart="588.00" from="1192228400#11" to="659237713#0"/>
    <trip id="295" depart="590.00" from="39563506#0" to="1008697395"/>
    <trip id="296" depart="592.00" from="-1108070686#2" to="742164894#5"/>
    <trip id="297" depart="594.00" from="-231807296#1" to="397805683#0"/>
    <trip id="298" depart="596.00" from="231102086" to="46208616#3"/>
    <trip id="299" depart="598.00" from="38893124#1" to="356102529"/>
    <trip id="300" depart="600.00" from="231102764#0" to="48360965"/>
    <trip id="301" depart="602.00" from="-248442599" to="-53814835#4"/>
    <trip id="302" depart="604.00" from="390309919#3" to="1107163545#1"/>
    <trip id="303" depart="606.00" from="29422713#3" to="231094153#1"/>
    <trip id="304" depart="608.00" from="24576642#0" to="159044275#0"/>
    <trip id="305" depart="610.00" from="45254274#3" to="117110795#3"/>
    <trip id="306" depart="612.00" from="39568470#0" to="-99450046#7"/>
    <trip id="307" depart="614.00" from="-742164894#5" to="-33037128#2"/>
    <trip id="308" depart="616.00" from="-52707383#0" to="-330109099#3"/>
    <trip id="309" depart="618.00" from="24601030#1" to="46208620#7"/>
    <trip id="310" depart="620.00" from="-48360963#0" to="-53813393#2"/>
    <trip id="311" depart="622.00" from="231100866#2" to="409826715#2"/>
    <trip id="312" depart="624.00" from="913759950#1" to="24553972#3"/>
    <trip id="313" depart="626.00" from="1009526214" to="-285877750#0"/>
    <trip id="314" depart="628.00" from="-52707385#3" to="-53815387#1"/>
    <trip id="315" depart="630.00" from="-48359725#19" to="-1187905878#1"/>
    <trip id="316" depart="632.00" from="24600287#6" to="1004633181#0"/>
    <trip id="317" depart="634.00" from="913058948#4" to="25465013#4"/>
    <trip id="318" depart="636.00" from="39483155#12" to="-356102528#1"/>
    <trip id="319" depart="638.00" from="562757567#2" to="231102778#0"/>
    <trip id="320" depart="640.00" from="635451243#2" to="289829976#9"/>
    <trip id="321" depart="642.00" from="229104841#3" to="161884106"/>
    <trip id="322" depart="644.00" from="-48360948#1" to="-1358182595#2"/>
    <trip id="323" depart="646.00" from="715606134#2" to="231095197#0"/>
    <trip id="324" depart="648.00" from="52708908#27" to="1356434781#0"/>
    <trip id="325" depart="650.00" from="-163099030" to="343540921#8"/>
    <trip id="326" depart="652.00" from="-1358182597" to="-46208595#4"/>
    <trip id="327" depart="654.00" from="266697569#12" to="1107163537#0"/>
    <trip id="328" depart="656.00" from="99449524#0" to="-314481879#2"/>
    <trip id="329" depart="658.00" from="465147390#21" to="317975007#2"/>
    <trip id="330" depart="660.00" from="48359739" to="-53815376"/>
    <trip id="331" depart="662.00" from="232888363#1" to="168589956"/>
    <trip id="332" depart="664.00" from="161884109" to="545364948#5"/>
    <trip id="333" depart="666.00" from="95069887" to="1107163540#3"/>
    <trip id="334" depart="668.00" from="332993700#0" to="329378796#1"/>
    <trip id="335" depart="670.00" from="43593224#2" to="742164894#1"/>
    <trip id="336" depart="672.00" from="-52708921#10" to="-52710292#26"/>
    <trip id="337" depart="674.00" from="357178420#1" to="-46208615#2"/>
    <trip id="338" depart="676.00" from="-48310684#11" to="-186776880"/>
    <trip id="339" depart="678.00" from="-1020078688#3" to="168589956"/>
    <trip id="340" depart="680.00" from="29464523#0" to="1067300042#7"/>
    <trip id="341" depart="682.00" from="-53815384" to="396919502"/>
    <trip id="342" depart="684.00" from="39568470#1" to="186776870#2"/>
    <trip id="343" depart="686.00" from="48359728#3" to="341664836"/>
    <trip id="344" depart="688.00" from="357192840#2" to="706220880#0"/>
    <trip id="345" depart="690.00" from="158127925#2" to="249519082"/>
    <trip id="346" depart="692.00" from="356065344#0" to="685150632"/>
    <trip id="347" depart="694.00" from="52708912#1" to="-163099036#2"/>
    <trip id="348" depart="696.00" from="-46208620#7" to="1107277581#0"/>
    <trip id="349" depart="698.00" from="46201986#6" to="285877754"/>
    <trip id="350" depart="700.00" from="1020078688#6" to="-354299013#3"/>
    <trip id="351" depart="702.00" from="38849145#13" to="39513574#3"/>
    <trip id="352" depart="704.00" from="231102780#3" to="-231102085#7"/>
    <trip id="353" depart="706.00" from="-126277921#2" to="161307637"/>
    <trip id="354" depart="708.00" from="1154128763#3" to="-833897458"/>
    <trip id="355" depart="710.00" from="-24753375#0" to="817016176#4"/>
    <trip id="356" depart="712.00" from="52708928#5" to="289956860#16"/>
    <trip id="357" depart="714.00" from="758177651#0" to="99498354#0"/>
    <trip id="358" depart="716.00" from="360590698" to="-99450045#3"/>
    <trip id="359" depart="718.00" from="-126277923#2" to="46208611#0"/>
    <trip id="360" depart="720.00" from="229104843" to="356133838#18"/>
    <trip id="361" depart="722.00" from="700028143#0" to="-48360966#1"/>
    <trip id="362" depart="724.00" from="29430888#1" to="343738669#8"/>
    <trip id="363" depart="726.00" from="231102768#0" to="-249539948#4"/>
    <trip id="364" depart="728.00" from="1217764421#4" to="1183767693#2"/>
    <trip id="365" depart="730.00" from="358926098#2" to="53815386#1"/>
    <trip id="366" depart="732.00" from="115672717#1" to="39453104#7"/>
    <trip id="367" depart="734.00" from="1020078688#2" to="730950588#0"/>
    <trip id="368" depart="736.00" from="52708891#0" to="249539950#4"/>
    <trip id="369" depart="738.00" from="185014679" to="1120763006#4"/>
    <trip id="370" depart="740.00" from="1154176157" to="90619244#1"/>
    <trip id="371" depart="742.00" from="1356434781#4" to="231807304#5"/>
    <trip id="372" depart="744.00" from="942422866" to="356388358#0"/>
    <trip id="373" depart="746.00" from="24808006" to="1486670645"/>
    <trip id="374" depart="748.00" from="-48360968#2" to="124792700#1"/>
    <trip id="375" depart="750.00" from="46208607#7" to="343540918#0"/>
    <trip id="376" depart="752.00" from="46208618#17" to="-52708921#1"/>
    <trip id="377" depart="754.00" from="249539949#17" to="701356188#3"/>
    <trip id="378" depart="756.00" from="161392540#3" to="39513371#1"/>
    <trip id="379" depart="758.00" from="-314481879#2" to="913039715#2"/>
    <trip id="380" depart="760.00" from="317975007#7" to="-700028178"/>
    <trip id="381" depart="762.00" from="-46208602#0" to="249539952#0"/>
    <trip id="382" depart="764.00" from="249539951#3" to="-249539952#3"/>
    <trip id="383" depart="766.00" from="195718577#6" to="-30408363#8"/>
    <trip id="384" depart="768.00" from="52708921#20" to="231103924#1"/>
    <trip id="385" depart="770.00" from="397652157#2" to="231807292#1"/>
    <trip id="386" depart="772.00" from="-99449517#5" to="52708928#6"/>
    <trip id="387" depart="774.00" from="91868276#2" to="-712664807#0"/>
    <trip id="388" depart="776.00" from="249539950#27" to="1268032602"/>
    <trip id="389" depart="778.00" from="700028189#2" to="231256250"/>
    <trip id="390" depart="780.00" from="657095945#1" to="55204885#6"/>
    <trip id="391" depart="782.00" from="-99450046#3" to="48359739"/>
    <trip id="392" depart="784.00" from="1486670644" to="706220881#6"/>
    <trip id="393" depart="786.00" from="231107719#2" to="52708908#25"/>
    <trip id="394" depart="788.00" from="1008705553#4" to="1098152879#1"/>
    <trip id="395" depart="790.00" from="29431397#4" to="99498179#2"/>
    <trip id="396" depart="792.00" from="231102092" to="-46201986#8"/>
    <trip id="397" depart="794.00" from="24774120#6" to="121821981#2"/>
    <trip id="398" depart="796.00" from="249539951#1" to="248806634#6"/>
    <trip id="399" depart="798.00" from="186406391#6" to="1154843260"/>
    <trip id="400" depart="800.00" from="-48360973#2" to="39483242"/>
    <trip id="401" depart="802.00" from="285877757#2" to="-655951147#1"/>
    <trip id="402" depart="804.00" from="48310673#7" to="-129141976#2"/>
    <trip id="403" depart="806.00" from="45253692#0" to="396890093"/>
    <trip id="404" depart="808.00" from="52707383#7" to="1289027215#0"/>
    <trip id="405" depart="810.00" from="357220477#3" to="52708908#27"/>
    <trip id="406" depart="812.00" from="91878484#0" to="231102789#7"/>
    <trip id="407" depart="814.00" from="-126274294#8" to="231107707#7"/>