<?xml version="1.0" encoding="UTF-8"?>

<!-- generated on 2026-06-20 14:32:51.468058 by Eclipse SUMO randomTrips.py v1_27_0+0000-e238ea04b71
<configuration>
    <net-file value="C:\Users\cjean\Documents\Git\CAmbiente\data/map/curitiba.net.xml"/>
    <weights-prefix value="C:\Users\cjean\Documents\Git\CAmbiente\data\traffic\tomtom_weights"/>
    <route-file value="C:\Users\cjean\Documents\Git\CAmbiente\data/traffic/tomtom_peak.rou.xml"/>
    <period value="1.0"/>
</configuration>
-->

<routes xmlns:xsi="http://www.w3.org/2001/XMLSchema-instance" xsi:noNamespaceSchemaLocation="http://sumo.dlr.de/xsd/routes_file.xsd">
    <trip id="0" depart="0.00" from="357220475#5" to="-124792700#2"/>
    <trip id="1" depart="1.00" from="129320876#1" to="-53814837#4"/>
    <trip id="2" depart="2.00" from="40590999#5" to="371941807#1"/>
    <trip id="3" depart="3.00" from="663076760#0" to="-24576379#4"/>
    <trip id="4" depart="4.00" from="231102758#6" to="-126271638#1"/>
    <trip id="5" depart="5.00" from="1217764418#1" to="231107719#2"/>
    <trip id="6" depart="6.00" from="-24774055#1" to="-52708908#28"/>
    <trip id="7" depart="7.00" from="358926102#3" to="249519085#1"/>
    <trip id="8" depart="8.00" from="1217845814#2" to="29464176#2"/>
    <trip id="9" depart="9.00" from="52707373" to="-1107163537#1"/>
    <trip id="10" depart="10.00" from="504245996#0" to="39509226#1"/>
    <trip id="11" depart="11.00" from="195556937#2" to="-46208607#3"/>
    <trip id="12" depart="12.00" from="706220889#0" to="1192228400#9"/>
    <trip id="13" depart="13.00" from="1011937893#1" to="-277739807#1"/>
    <trip id="14" depart="14.00" from="660019007#0" to="314481879#2"/>
    <trip id="15" depart="15.00" from="504245999" to="421742147#5"/>
    <trip id="16" depart="16.00" from="252577424#0" to="913039715#2"/>
    <trip id="17" depart="17.00" from="231094632" to="252574746#4"/>
    <trip id="18" depart="18.00" from="641403915#2" to="331568010#0"/>
    <trip id="19" depart="19.00" from="663076693#1" to="289957316"/>
    <trip id="20" depart="20.00" from="380939621#0" to="-132844023#4"/>
    <trip id="21" depart="21.00" from="121846075#3" to="1066803876#1"/>
    <trip id="22" depart="22.00" from="1024709868#0" to="1010137762#0"/>
    <trip id="23" depart="23.00" from="357220475#2" to="125542072#0"/>
    <trip id="24" depart="24.00" from="231092960#0" to="-52710290#1"/>
    <trip id="25" depart="25.00" from="127724111#1" to="71184882#2"/>
    <trip id="26" depart="26.00" from="358926102#0" to="329346464#1"/>
    <trip id="27" depart="27.00" from="787325782" to="355714079#15"/>
    <trip id="28" depart="28.00" from="289957317#0" to="382423717#0"/>
    <trip id="29" depart="29.00" from="659237713#1" to="48310676#3"/>
    <trip id="30" depart="30.00" from="121846101#0" to="-126274279#5"/>
    <trip id="31" depart="31.00" from="158958941#3" to="-99449517#9"/>
    <trip id="32" depart="32.00" from="663076698#9" to="1126852475#1"/>
    <trip id="33" depart="33.00" from="370094378#2" to="1339926516#1"/>
    <trip id="34" depart="34.00" from="664311321#0" to="195718577#4"/>
    <trip id="35" depart="35.00" from="127724111#0" to="-749651782"/>
    <trip id="36" depart="36.00" from="291469317#0" to="-92119148#0"/>
    <trip id="37" depart="37.00" from="316398450#0" to="663076764#0"/>
    <trip id="38" depart="38.00" from="231095762#0" to="-53813397#3"/>
    <trip id="39" depart="39.00" from="934870452#0" to="231807292#9"/>
    <trip id="40" depart="40.00" from="1009725213#0" to="-1338768166#7"/>
    <trip id="41" depart="41.00" from="1025358701" to="343540920#22"/>
    <trip id="42" depart="42.00" from="458685556#0" to="158127922#2"/>
    <trip id="43" depart="43.00" from="371941804#3" to="24775110#1"/>
    <trip id="44" depart="44.00" from="127724111#1" to="355714080#5"/>
    <trip id="45" depart="45.00" from="1025359783" to="161320951"/>
    <trip id="46" depart="46.00" from="231103925#3" to="758187580#0"/>
    <trip id="47" depart="47.00" from="663076698#9" to="-921619224"/>
    <trip id="48" depart="48.00" from="663076775#1" to="629645720"/>
    <trip id="49" depart="49.00" from="1483460388#2" to="354612980#0"/>
    <trip id="50" depart="50.00" from="343540920#3" to="-46208601#2"/>
    <trip id="51" depart="51.00" from="43593221#0" to="24783521#0"/>
    <trip id="52" depart="52.00" from="44867748#2" to="24576673#0"/>
    <trip id="53" depart="53.00" from="-101401535#5" to="1155317927#0"/>
    <trip id="54" depart="54.00" from="-1270649736" to="701455154#2"/>
    <trip id="55" depart="55.00" from="663076700#2" to="52708921#6"/>
    <trip id="56" depart="56.00" from="663076700#2" to="739461147#1"/>
    <trip id="57" depart="57.00" from="1004633184#2" to="231102085#4"/>
    <trip id="58" depart="58.00" from="43593224#14" to="-356388211#2"/>
    <trip id="59" depart="59.00" from="231807290#2" to="249539950#26"/>
    <trip id="60" depart="60.00" from="127724111#0" to="638082302#6"/>
    <trip id="61" depart="61.00" from="231102766#1" to="-52710293#1"/>
    <trip id="62" depart="62.00" from="263504522#0" to="421742147#7"/>
    <trip id="63" depart="63.00" from="231102784#1" to="232888339#11"/>
    <trip id="64" depart="64.00" from="1067300042#15" to="-53814841#6"/>
    <trip id="65" depart="65.00" from="188359086" to="29431409#2"/>
    <trip id="66" depart="66.00" from="121846101#1" to="-53813398#4"/>
    <trip id="67" depart="67.00" from="-706210010" to="343540927#7"/>
    <trip id="68" depart="68.00" from="121846101#0" to="671139407#2"/>
    <trip id="69" depart="69.00" from="663076692#0" to="-162606861#0"/>
    <trip id="70" depart="70.00" from="122739485#0" to="359561457"/>
    <trip id="71" depart="71.00" from="69965492" to="285877770#2"/>
    <trip id="72" depart="72.00" from="231107712#4" to="48359723#4"/>
    <trip id="73" depart="73.00" from="52707339" to="-52707397#2"/>
    <trip id="74" depart="74.00" from="1011937894" to="161307636#0"/>
    <trip id="75" depart="75.00" from="231102766#1" to="229104841#2"/>
    <trip id="76" depart="76.00" from="397646589" to="371941802#0"/>
    <trip id="77" depart="77.00" from="758299957#1" to="-277739807#7"/>
    <trip id="78" depart="78.00" from="231095765#0" to="1214123449#1"/>
    <trip id="79" depart="79.00" from="663076693#1" to="-758187581"/>
    <trip id="80" depart="80.00" from="113798872#1" to="163603470#2"/>
    <trip id="81" depart="81.00" from="231102758#6" to="1011937880#1"/>
    <trip id="82" depart="82.00" from="1238625329" to="700028199#5"/>
    <trip id="83" depart="83.00" from="231102798#4" to="546565130#3"/>
    <trip id="84" depart="84.00" from="266697569#3" to="-1356434781#3"/>
    <trip id="85" depart="85.00" from="660019012#0" to="-48310677#1"/>
    <trip id="86" depart="86.00" from="24553716#0" to="-53813389#8"/>
    <trip id="87" depart="87.00" from="231095762#2" to="-158125844#0"/>
    <trip id="88" depart="88.00" from="231094632" to="923769964#2"/>
    <trip id="89" depart="89.00" from="127724111#0" to="48359722#4"/>
    <trip id="90" depart="90.00" from="231103925#6" to="158133754#0"/>
    <trip id="91" depart="91.00" from="706220889#1" to="99450043#2"/>
    <trip id="92" depart="92.00" from="289829976#6" to="397652165#1"/>
    <trip id="93" depart="93.00" from="720363057#0" to="29422710#4"/>
    <trip id="94" depart="94.00" from="263504527#2" to="46201986#1"/>
    <trip id="95" depart="95.00" from="-359642545#3" to="29431396#3"/>
    <trip id="96" depart="96.00" from="24576603#0" to="53814836#2"/>
    <trip id="97" depart="97.00" from="33037086#6" to="371941803#3"/>
    <trip id="98" depart="98.00" from="663076752" to="-742164897#1"/>
    <trip id="99" depart="99.00" from="329346464#0" to="333068567#3"/>
    <trip id="100" depart="100.00" from="231102758#4" to="29430890#1"/>
    <trip id="101" depart="101.00" from="24774120#0" to="706220885#0"/>
    <trip id="102" depart="102.00" from="1164982653#1" to="397652163#0"/>
    <trip id="103" depart="103.00" from="122739485#1" to="1339926516#2"/>
    <trip id="104" depart="104.00" from="371941799#1" to="1098152910#3"/>
    <trip id="105" depart="105.00" from="158958943" to="46208601#0"/>
    <trip id="106" depart="106.00" from="-738701353" to="195718576#2"/>
    <trip id="107" depart="107.00" from="-74383930" to="-53813389#3"/>
    <trip id="108" depart="108.00" from="127724111#0" to="706220878"/>
    <trip id="109" depart="109.00" from="663076740#0" to="657095949#0"/>
    <trip id="110" depart="110.00" from="231092958#1" to="-46208618#1"/>
    <trip id="111" depart="111.00" from="343738661" to="93125231#0"/>
    <trip id="112" depart="112.00" from="55200329#1" to="1098152908#1-AddedOnRampEdge"/>
    <trip id="113" depart="113.00" from="370094379#2" to="713823599#0"/>
    <trip id="114" depart="114.00" from="1098152910#0" to="-29548992#2"/>
    <trip id="115" depart="115.00" from="1024709875#1" to="25465013#2"/>
    <trip id="116" depart="116.00" from="1290021182#0" to="316394251#4"/>
    <trip id="117" depart="117.00" from="397459678#1" to="-52708917#7"/>
    <trip id="118" depart="118.00" from="357220475#0" to="-923769964#3"/>
    <trip id="119" depart="119.00" from="24553779#0" to="671139407#1"/>
    <trip id="120" depart="120.00" from="660018999#0" to="-249539949#18"/>
    <trip id="121" depart="121.00" from="231102766#1" to="1008705550#3"/>
    <trip id="122" depart="122.00" from="357220475#3" to="-92047315#5"/>
    <trip id="123" depart="123.00" from="409826715#0" to="252574746#1"/>
    <trip id="124" depart="124.00" from="231102770#4" to="-1108070687#0"/>
    <trip id="125" depart="125.00" from="663076771#1" to="249519089"/>
    <trip id="126" depart="126.00" from="655894898" to="29430884#0"/>
    <trip id="127" depart="127.00" from="1511981953" to="663076770#0"/>
    <trip id="128" depart="128.00" from="465279491" to="545364949#0"/>
    <trip id="129" depart="129.00" from="663076767#0" to="-52710292#10"/>
    <trip id="130" depart="130.00" from="1237873476#1" to="-289829956#0"/>
    <trip id="131" depart="131.00" from="452156599" to="660019015#1"/>
    <trip id="132" depart="132.00" from="231095766#1" to="333068570#4"/>
    <trip id="133" depart="133.00" from="663076695#0" to="913475187#2"/>
    <trip id="134" depart="134.00" from="52708923#2" to="659241075#2"/>
    <trip id="135" depart="135.00" from="-24774055#0" to="435228455#1"/>
    <trip id="136" depart="136.00" from="161885247" to="70349231#0"/>
    <trip id="137" depart="137.00" from="47515631#0" to="55204885#6"/>
    <trip id="138" depart="138.00" from="52708923#2" to="-99449517#1"/>
    <trip id="139" depart="139.00" from="458317565#0" to="-29431403#1"/>
    <trip id="140" depart="140.00" from="663076698#4" to="53815390#1"/>
    <trip id="141" depart="141.00" from="121846057#0" to="52708905#1"/>
    <trip id="142" depart="142.00" from="231103928#0" to="1107163540#1"/>
    <trip id="143" depart="143.00" from="465147390#17" to="-53815387#1"/>
    <trip id="144" depart="144.00" from="161885238" to="55204912"/>
    <trip id="145" depart="145.00" from="715606125#3" to="1011937893#4"/>
    <trip id="146" depart="146.00" from="357220477#0" to="1356434778#0"/>
    <trip id="147" depart="147.00" from="758281400" to="24774120#2"/>
    <trip id="148" depart="148.00" from="701173580" to="-29548992#1"/>
    <trip id="149" depart="149.00" from="711558641#1" to="-93125231#1"/>
    <trip id="150" depart="150.00" from="1024709877#0" to="161320945#7"/>
    <trip id="151" depart="151.00" from="397646589" to="1111181213"/>
    <trip id="152" depart="152.00" from="343540920#10" to="231807296#4"/>
    <trip id="153" depart="153.00" from="231094852#0" to="289956864#3"/>
    <trip id="154" depart="154.00" from="125542072#0" to="397470157#1"/>
    <trip id="155" depart="155.00" from="-1052864211" to="700183100#2"/>
    <trip id="156" depart="156.00" from="263504521#1" to="397773659#1"/>
    <trip id="157" depart="157.00" from="409826715#2" to="365728045"/>
    <trip id="158" depart="158.00" from="231092453" to="-161884104#5"/>
    <trip id="159" depart="159.00" from="370094379#2" to="1167537319"/>
    <trip id="160" depart="160.00" from="158958941#0" to="53813396#13"/>
    <trip id="161" depart="161.00" from="397470156#0" to="1098152913"/>
    <trip id="162" depart="162.00" from="1511981953" to="1409280537#2"/>
    <trip id="163" depart="163.00" from="231095765#0" to="1070035666#0"/>
    <trip id="164" depart="164.00" from="1083084030#1" to="1524235968#0"/>
    <trip id="165" depart="165.00" from="706210007#1" to="371941812#1"/>
    <trip id="166" depart="166.00" from="663076770#0" to="33068457#22"/>
    <trip id="167" depart="167.00" from="1488136316" to="249539949#18"/>
    <trip id="168" depart="168.00" from="-101401535#5" to="1049505882#2"/>
    <trip id="169" depart="169.00" from="231102770#6" to="29422713#5"/>
    <trip id="170" depart="170.00" from="370094378#1" to="223784230#10"/>
    <trip id="171" depart="171.00" from="231102798#1" to="-53813389#8"/>
    <trip id="172" depart="172.00" from="231107716#0" to="664311304#6"/>
    <trip id="173" depart="173.00" from="465279491" to="-48310684#22"/>
    <trip id="174" depart="174.00" from="1004633184#1" to="23185727#1"/>
    <trip id="175" depart="175.00" from="356136666#1" to="1192228399#4"/>
    <trip id="176" depart="176.00" from="56235458#0" to="46208598#0"/>
    <trip id="177" depart="177.00" from="371941800#0" to="-53814841#6"/>
    <trip id="178" depart="178.00" from="1154846447#3" to="-124791192#3"/>
    <trip id="179" depart="179.00" from="122741943#7" to="231094633#4"/>
    <trip id="180" depart="180.00" from="660019012#2" to="-163965280#1"/>
    <trip id="181" depart="181.00" from="231102084#1" to="343540922"/>
    <trip id="182" depart="182.00" from="1154176157" to="39483155#2"/>
    <trip id="183" depart="183.00" from="24553972#8" to="-712664807#1"/>
    <trip id="184" depart="184.00" from="370094378#2" to="-1103531753#3"/>
    <trip id="185" depart="185.00" from="429543355#17" to="474243695#1"/>
    <trip id="186" depart="186.00" from="1024709875#0" to="159044273"/>
    <trip id="187" depart="187.00" from="24601065" to="-1355121272"/>
    <trip id="188" depart="188.00" from="1237873476#1" to="53813396#16"/>
    <trip id="189" depart="189.00" from="231103925#7" to="513453956#0"/>
    <trip id="190" depart="190.00" from="371941798#3" to="934870453#0"/>
    <trip id="191" depart="191.00" from="332993700#4" to="75366764#3"/>
    <trip id="192" depart="192.00" from="397459678#3" to="231107718#5"/>
    <trip id="193" depart="193.00" from="654376980#1" to="249539949#17"/>
    <trip id="194" depart="194.00" from="663076762#2" to="452336636"/>
    <trip id="195" depart="195.00" from="231807290#1" to="-914922102"/>
    <trip id="196" depart="196.00" from="1235817946#1" to="344348891"/>
    <trip id="197" depart="197.00" from="43593224#14" to="232923421#2"/>
    <trip id="198" depart="198.00" from="356125015" to="1004633183"/>
    <trip id="199" depart="199.00" from="1290021181#1" to="1154411883#8"/>
    <trip id="200" depart="200.00" from="263504522#2" to="-39509226#1"/>
    <trip id="201" depart="201.00" from="121846101#1" to="39453104#9"/>
    <trip id="202" depart="202.00" from="380939623#0" to="-160737025#13"/>
    <trip id="203" depart="203.00" from="231096128#0" to="248803655#0"/>
    <trip id="204" depart="204.00" from="231102089" to="-52710262#1"/>
    <trip id="205" depart="205.00" from="231102758#5" to="670931471#0"/>
    <trip id="206" depart="206.00" from="316398450#0" to="39453109"/>
    <trip id="207" depart="207.00" from="663066018#3" to="465415653#0"/>
    <trip id="208" depart="208.00" from="231094633#3" to="-1103531753#6"/>
    <trip id="209" depart="209.00" from="223784049#15" to="46208601#8"/>
    <trip id="210" depart="210.00" from="660019015#1" to="758187579#1"/>
    <trip id="211" depart="211.00" from="231102758#4" to="458685556#2"/>
    <trip id="212" depart="212.00" from="263505518" to="314481876#1"/>
    <trip id="213" depart="213.00" from="1217845814#2" to="-53813397#4"/>
    <trip id="214" depart="214.00" from="231102780#9" to="-126271634#3"/>
    <trip id="215" depart="215.00" from="186406391#9" to="375552626#2"/>
    <trip id="216" depart="216.00" from="231095765#1" to="-48310673#1"/>
    <trip id="217" depart="217.00" from="231107707#7" to="-356133262#6"/>
    <trip id="218" depart="218.00" from="354612980#0" to="-126271629#0"/>
    <trip id="219" depart="219.00" from="231095195#5" to="277739807#14"/>
    <trip id="220" depart="220.00" from="-24774055#1" to="355718151#7"/>
    <trip id="221" depart="221.00" from="1107163477" to="223783965#1"/>
    <trip id="222" depart="222.00" from="43592860#3" to="126277925#0"/>
    <trip id="223" depart="223.00" from="429543355#17" to="52708921#8"/>
    <trip id="224" depart="224.00" from="-1270649736" to="24783521#0"/>
    <trip id="225" depart="225.00" from="358926102#3" to="48310685#3"/>
    <trip id="226" depart="226.00" from="358926102#5" to="46208605#1"/>
    <trip id="227" depart="227.00" from="706220881#6" to="-52708908#7"/>
    <trip id="228" depart="228.00" from="-1339909981" to="-46208601#12"/>
    <trip id="229" depart="229.00" from="1070035665#0" to="359607745#1"/>
    <trip id="230" depart="230.00" from="29422710#2" to="-53813396#16"/>
    <trip id="231" depart="231.00" from="380939590" to="466545813#1"/>
    <trip id="232" depart="232.00" from="418124692#0" to="-29548969#4"/>
    <trip id="233" depart="233.00" from="56235458#1" to="84518380"/>
    <trip id="234" depart="234.00" from="1024709877#0" to="-125381952"/>
    <trip id="235" depart="235.00" from="158958939#4" to="371941812#1"/>
    <trip id="236" depart="236.00" from="706220889#1" to="1339926557#0"/>
    <trip id="237" depart="237.00" from="397121350#2" to="-210756566#2"/>
    <trip id="238" depart="238.00" from="371941809" to="343540920#20"/>
    <trip id="239" depart="239.00" from="1024709868#1" to="48310143#10"/>
    <trip id="240" depart="240.00" from="1067300042#15" to="92047340#1"/>
    <trip id="241" depart="241.00" from="452336635" to="121846057#1"/>
    <trip id="242" depart="242.00" from="231102770#5" to="126271649"/>
    <trip id="243" depart="243.00" from="24576603#6" to="1214381502#1"/>
    <trip id="244" depart="244.00" from="660019012#2" to="52708909#4"/>
    <trip id="245" depart="245.00" from="1024709874#1" to="79691012#7"/>
    <trip id="246" depart="246.00" from="357220475#2" to="52708917#22"/>
    <trip id="247" depart="247.00" from="386353438" to="161392540#0"/>
    <trip id="248" depart="248.00" from="40590999#0" to="84948376"/>
    <trip id="249" depart="249.00" from="263504521#1" to="231101474#1"/>
    <trip id="250" depart="250.00" from="231102780#9" to="425091530"/>
    <trip id="251" depart="251.00" from="127724115" to="53814835#1"/>
    <trip id="252" depart="252.00" from="654376980#1" to="-24576379#0"/>
    <trip id="253" depart="253.00" from="663076740#1" to="-712664807#0"/>
    <trip id="254" depart="254.00" from="231107707#5" to="330109099#4"/>
    <trip id="255" depart="255.00" from="231094633#0" to="-126271634#0"/>
    <trip id="256" depart="256.00" from="660019015#0" to="-48360966#2"/>
    <trip id="257" depart="257.00" from="195556937#2" to="659237712#7"/>
    <trip id="258" depart="258.00" from="380939603#3" to="1008697395"/>
    <trip id="259" depart="259.00" from="-124648009#1" to="742164894#6"/>
    <trip id="260" depart="260.00" from="1004633184#2" to="397805683#0"/>
    <trip id="261" depart="261.00" from="24553779#0" to="46208616#2"/>
    <trip id="262" depart="262.00" from="371941809" to="356102528#2"/>
    <trip id="263" depart="263.00" from="24553972#0" to="48360965"/>
    <trip id="264" depart="264.00" from="1011937893#2" to="-53814835#3"/>
    <trip id="265" depart="265.00" from="371941809" to="1107163545#1"/>
    <trip id="266" depart="266.00" from="316394251#0" to="231094153#2"/>
    <trip id="267" depart="267.00" from="248803655#0" to="159044275#1"/>
    <trip id="268" depart="268.00" from="418124690#1" to="117110795#3"/>
    <trip id="269" depart="269.00" from="380939618#0" to="-99450046#7"/>
    <trip id="270" depart="270.00" from="124792701#1" to="-33037128#1"/>
    <trip id="271" depart="271.00" from="1154176157" to="-330109099#2"/>
    <trip id="272" depart="272.00" from="252577424#0" to="46208620#7"/>
    <trip id="273" depart="273.00" from="24553716#0" to="409826715#2"/>
    <trip id="274" depart="274.00" from="75604809" to="24553972#4"/>
    <trip id="275" depart="275.00" from="1154176157" to="-53815387#0"/>
    <trip id="276" depart="276.00" from="252577421#1" to="1004633181#1"/>
    <trip id="277" depart="277.00" from="74383930" to="25465013#3"/>
    <trip id="278" depart="278.00" from="380939581#0" to="-356102528#0"/>
    <trip id="279" depart="279.00" from="663076698#4" to="289829976#9"/>
    <trip id="280" depart="280.00" from="231107712#0" to="161884107"/>
    <trip id="281" depart="281.00" from="706210007#2" to="231095197#1"/>
    <trip id="282" depart="282.00" from="56235459#0" to="1356434781#0"/>
    <trip id="283" depart="283.00" from="-74383930" to="343540921#7"/>
    <trip id="284" depart="284.00" from="29422710#1" to="1107163536"/>
    <trip id="285" depart="285.00" from="43593224#13" to="317975007#3"/>
    <trip id="286" depart="286.00" from="458317565#6" to="-53815358"/>
    <trip id="287" depart="287.00" from="24774120#0" to="171671488#1"/>
    <trip id="288" depart="288.00" from="231102798#4" to="545364948#5"/>
    <trip id="289" depart="289.00" from="350940451#1" to="329378796#2"/>
    <trip id="290" depart="290.00" from="406228783#1" to="742164894#1"/>
    <trip id="291" depart="291.00" from="117119226#2" to="-52710292#23"/>
    <trip id="292" depart="292.00" from="370094379#0" to="-46208611#8"/>
    <trip id="293" depart="293.00" from="-115672722#1" to="168592444"/>
    <trip id="294" depart="294.00" from="317975007#7" to="1067300042#6"/>
    <trip id="295" depart="295.00" from="121848065" to="396890104"/>
    <trip id="296" depart="296.00" from="380939618#0" to="186776870#3"/>
    <trip id="297" depart="297.00" from="371941807#0" to="700028200#1"/>
    <trip id="298" depart="298.00" from="458317565#0" to="341664836"/>
    <trip id="299" depart="299.00" from="370094379#1" to="706220880#0"/>
    <trip id="300" depart="300.00" from="231102766#2" to="249519079"/>
    <trip id="301" depart="301.00" from="358926098#0" to="685150631"/>
    <trip id="302" depart="302.00" from="604751527#0" to="-163099036#0"/>
    <trip id="303" depart="303.00" from="418549586" to="285877755#0"/>
    <trip id="304" depart="304.00" from="371941807#2" to="39513574#2"/>
    <trip id="305" depart="305.00" from="706220871#0" to="231103928#2"/>
    <trip id="306" depart="306.00" from="24553972#8" to="-231102085#5"/>
    <trip id="307" depart="307.00" from="-289829976#13" to="161320935#0"/>
    <trip id="308" depart="308.00" from="161884097" to="-817951708"/>
    <trip id="309" depart="309.00" from="1011937893#0" to="817016176#7"/>
    <trip id="310" depart="310.00" from="655894898" to="289956860#16"/>
    <trip id="311" depart="311.00" from="706220882#0" to="99498354#0"/>
    <trip id="312" depart="312.00" from="371941799#1" to="-99450045#4"/>
    <trip id="313" depart="313.00" from="-289829976#13" to="46208611#0"/>
    <trip id="314" depart="314.00" from="231107712#2" to="356133838#16"/>
    <trip id="315" depart="315.00" from="664929059#1" to="-48360964"/>
    <trip id="316" depart="316.00" from="317975003" to="343738669#8"/>
    <trip id="317" depart="317.00" from="24553972#2" to="-249539948#3"/>
    <trip id="318" depart="318.00" from="223783965#4" to="1183767693#2"/>
    <trip id="319" depart="319.00" from="371941799#0" to="53815386#1"/>
    <trip id="320" depart="320.00" from="161885244" to="39453104#6"/>
    <trip id="321" depart="321.00" from="55200327#2" to="249539950#4"/>
    <trip id="322" depart="322.00" from="231103925#5" to="1120763006#4"/>
    <trip id="323" depart="323.00" from="161884098" to="90619247"/>
    <trip id="324" depart="324.00" from="231095765#1" to="231828925#0"/>
    <trip id="325" depart="325.00" from="776123661#4" to="356388212#2"/>
    <trip id="326" depart="326.00" from="263504527#4" to="1486670645"/>
    <trip id="327" depart="327.00" from="435173309#1" to="343540918#0"/>
    <trip id="328" depart="328.00" from="43592860#1" to="-52708917#7"/>
    <trip id="329" depart="329.00" from="265615038#0" to="701356188#3"/>
    <trip id="330" depart="330.00" from="231102784#1" to="39513371#0"/>
    <trip id="331" depart="331.00" from="1067300042#15" to="913039715#3"/>
    <trip id="332" depart="332.00" from="343540920#3" to="-700028155"/>
    <trip id="333" depart="333.00" from="289829956#1" to="-249539952#2"/>
    <trip id="334" depart="334.00" from="231103928#2" to="-30408363#7"/>
    <trip id="335" depart="335.00" from="397459678#1" to="231807292#11"/>
    <trip id="336" depart="336.00" from="1290021183#1" to="52710256"/>
    <trip id="337" depart="337.00" from="758177655#1" to="-712664806"/>
    <trip id="338" depart="338.00" from="289598957" to="1270649732"/>
    <trip id="339" depart="339.00" from="671386117#0" to="231256251"/>
    <trip id="340" depart="340.00" from="663076700#2" to="55204885#6"/>
    <trip id="341" depart="341.00" from="231102085#0" to="706220881#6"/>
    <trip id="342" depart="342.00" from="24576628" to="52708908#26"/>
    <trip id="343" depart="343.00" from="317975004#0" to="99498179#2"/>
    <trip id="344" depart="344.00" from="263504521#1" to="121821981#2"/>
    <trip id="345" depart="345.00" from="289598957" to="248806634#5"/>
    <trip id="346" depart="346.00" from="231103925#6" to="1154664100#3"/>
    <trip id="347" depart="347.00" from="29430884#5" to="-655951147#0"/>
    <trip id="348" depart="348.00" from="44867748#0" to="-129141976#2"/>
    <trip id="349" depart="349.00" from="410037443" to="396890092#2"/>
    <trip id="350" depart="350.00" from="52708928#0" to="1289027215#1"/>
    <trip id="351" depart="351.00" from="370094379#2" to="52708908#28"/>
    <trip id="352" depart="352.00" from="758281400" to="231102791#1"/>
    <trip id="353" depart="353.00" from="-289829976#1" to="231107708#0"/>
    <trip id="354" depart="354.00" from="317975007#1" to="622711571#2"/>
    <trip id="355" depart="355.00" from="663076698#5" to="161884106"/>
    <trip id="356" depart="356.00" from="24775740#1" to="195556937#3"/>
    <trip id="357" depart="357.00" from="397470412" to="1415224404"/>
    <trip id="358" depart="358.00" from="370094378#1" to="-46208605#4"/>
    <trip id="359" depart="359.00" from="231107712#0" to="85389624#5"/>
    <trip id="360" depart="360.00" from="188359086" to="39453103#0"/>
    <trip id="361" depart="361.00" from="358926102#3" to="53814835#1"/>
    <trip id="362" depart="362.00" from="660019015#1" to="545364948#10"/>
    <trip id="363" depart="363.00" from="231094633#3" to="1143615454#3"/>
    <trip id="364" depart="364.00" from="397459678#3" to="46208618#14"/>
    <trip id="365" depart="365.00" from="663076698#4" to="-126274296#3"/>
    <trip id="366" depart="366.00" from="671139429" to="99450046#6"/>
    <trip id="367" depart="367.00" from="418124692#0" to="161320945#1"/>
    <trip id="368" depart="368.00" from="1024709867#0" to="343738669#14"/>
    <trip id="369" depart="369.00" from="663076698#4" to="162096211#4"/>
    <trip id="370" depart="370.00" from="371941812#1" to="665537549#0"/>
    <trip id="371" depart="371.00" from="-291468200#1" to="486415692#1"/>
    <trip id="372" depart="372.00" from="1415224405" to="126274294#4"/>
    <trip id="373" depart="373.00" from="29422713#1" to="48360963#5"/>
    <trip id="374" depart="374.00" from="122739485#5" to="69965492"/>
    <trip id="375" depart="375.00" from="-121846080#3" to="524285776#1"/>
    <trip id="376" depart="376.00" from="663076769#1" to="371942746"/>
    <trip id="377" depart="377.00" from="195655598#1" to="29431408#0"/>
    <trip id="378" depart="378.00" from="357220475#5" to="158958939#7"/>
    <trip id="379" depart="379.00" from="1238625329" to="53813391#0"/>
    <trip id="380" depart="380.00" from="1154846447#3" to="1271885035#1"/>
    <trip id="381" depart="381.00" from="24553699#0" to="-671169136#0"/>
    <trip id="382" depart="382.00" from="29430884#5" to="289956860#13"/>
    <trip id="383" depart="383.00" from="758177650#4" to="357169424#1"/>
    <trip id="384" depart="384.00" from="129320876#1" to="277739809#0"/>
    <trip id="385" depart="385.00" from="371941806#1" to="45253705#1"/>
    <trip id="386" depart="386.00" from="24554058" to="670931453#1"/>
    <trip id="387" depart="387.00" from="1409280513#1" to="503876751#2"/>
    <trip id="388" depart="388.00" from="343540920#19" to="1225327252"/>
    <trip id="389" depart="389.00" from="357220475#3" to="333068570#6"/>
    <trip id="390" depart="390.00" from="371941803#3" to="398387502"/>
    <trip id="391" depart="391.00" from="370094379#0" to="52710285#4"/>
    <trip id="392" depart="392.00" from="356125167#2" to="664929070#2"/>
    <trip id="393" depart="393.00" from="231102793#1" to="29422713#2"/>
    <trip id="394" depart="394.00" from="398531841#0" to="-248813647"/>
    <trip id="395" depart="395.00" from="1480746776#1" to="458685556#2"/>
    <trip id="396" depart="396.00" from="263504522#0" to="912642299#0"/>
    <trip id="397" depart="397.00" from="248803655#0" to="700028117#0"/>
    <trip id="398" depart="398.00" from="604751524#1" to="231100866#2"/>
    <trip id="399" depart="399.00" from="504245999" to="458317566#0"/>
    <trip id="400" depart="400.00" from="188359086" to="-29548992#0"/>
    <trip id="401" depart="401.00" from="711558641#1" to="-396890094#0"/>
    <trip id="402" depart="402.00" from="715606125#3" to="545364948#5"/>
    <trip id="403" depart="403.00" from="397628675#1" to="91868259#0"/>
    <trip id="404" depart="404.00" from="715606127" to="524285776#1"/>
    <trip id="405" depart="405.00" from="231092457" to="48360946#2"/>
    <trip id="406" depart="406.00" from="-1270649734" to="24774120#5"/>