<?xml version="1.0" encoding="UTF-8"?>

<!-- generated on 2026-06-16 12:08:03.073674 by Eclipse SUMO randomTrips.py v1_27_0+0000-e238ea04b71
<configuration>
    <net-file value="data/map/curitiba.net.xml"/>
    <route-file value="data/traffic/random_peak.rou.xml"/>
    <period value="2.0"/>
</configuration>
-->

<!-- generated on 2026-06-16T12:08:01.675770-03:00 by Eclipse SUMO duarouter 1.27.0
<duarouterConfiguration xmlns:xsi="http://www.w3.org/2001/XMLSchema-instance" xsi:noNamespaceSchemaLocation="http://sumo.dlr.de/xsd/duarouterConfiguration.xsd">

    <input>
        <net-file value="data/map/curitiba.net.xml"/>
        <route-files value="trips.trips.xml"/>
    </input>

    <output>
        <output-file value="data/traffic/random_peak.rou.xml"/>
        <alternatives-output value="NUL"/>
    </output>

    <processing>
        <routing-threads value="6"/>
    </processing>

    <time>
        <begin value="0"/>
        <end value="3600.0"/>
    </time>

    <report>
        <no-warnings value="true"/>
        <ignore-errors value="true"/>
        <no-step-log value="true"/>
    </report>

</duarouterConfiguration>
-->

<routes xmlns:xsi="http://www.w3.org/2001/XMLSchema-instance" xsi:noNamespaceSchemaLocation="http://sumo.dlr.de/xsd/routes_file.xsd">
    <vehicle id="0" depart="0.00">
        <route edges="343738672#8 1120758322#1 1120758322#2 343738669#0 343738669#1 343738669#2 343738669#3 343738669#4 343738669#5 343738669#6 343738669#7 343738669#8 343738669#9 343738669#10 343738669#11 343738669#12 343738669#13 343738669#14 316394251#4 316394251#5 316394251#6 316394251#7 317975004#0 317975004#1 317975004#2 398531841#0 398531841#1 398531841#2 398531841#3 333070956#0 333070956#1 397470156#0 397470156#1 -263504526#1 -263504526#0 -706220871#2 -1217772069#1 -1217772069#0 397773658#0 397773658#1 397773658#2 397773658#3 124792698 912640785#0 912640785#1 124792700#0 124792700#1 124792700#2 124792700#3 -124792700#3 -124792700#2"/>
    </vehicle>
    <vehicle id="1" depart="2.00">
        <route edges="-99450045#1 91878484#4 91878484#5 232888335#3 232888335#4 232888335#5 232888335#6 232888335#7 232888335#8 356134335 522701665#0 522701665#1 522701665#2 356134333#0 356134333#1 249539950#16 249539950#17 -1192228400#18 -1192228400#15 -1192228400#12 -1192228400#11 -1192228400#9 -1192228400#8 -1192228400#5 -1192228400#2 -355714081#2 -355714081#1 -354299037#1 -354299037#0 -1338768166#7 -1338768166#4 -1338768166#1 -48310673#8 -48310673#7 -48310673#6 -48310673#5 -48310673#4 -48310673#3 -48310673#2 -48310673#1 -48310673#0 1108070686#3 1108070686#4 1103531753#0 1103531753#1 1103531753#2 1103531753#3 1103531753#4 1103531753#5 1103531753#6 -53814837#6 -53814837#5"/>
    </vehicle>
    <vehicle id="2" depart="4.00">
        <route edges="435228453#6 -354299013#4 -354299013#3 -354299013#2 -354299013#1 249539950#18 249539950#19 249539950#22 249539950#26 249539950#27 1069478249#1 1069478249#4 52708923#0 52708923#1 52708923#2 52708923#3 52708923#4 52708923#5 52708923#6 52708923#7 52708923#8 758177655#1 758177655#4 758177655#5 231102778#0 231102778#2 231102778#3 231102778#4 231102778#5 231102770#0 231102770#1 231102770#2 231102770#3 231102770#4 231102770#5 231102770#6 231102758#0 231102758#1 231102758#2 231102758#3 231102758#4 231102758#5 231102758#6 231102784#0 231102784#1 1025359784#0 1025359784#1 231103930 371941806#0 371941808"/>
    </vehicle>
    <vehicle id="3" depart="6.00">
        <route edges="663076721#0 663076721#1 663076721#2 663076721#3 504243289#0 56235269#0 372920770 372920771#0 372920771#3 670931440 289957317#0 289957317#1 231091820#0 127724115 127724111#0 127724111#1 231094153#0 231094153#1 231094153#2 231094153#3 -24576646#1 -24576646#0"/>
    </vehicle>
    <vehicle id="4" depart="8.00">
        <route edges="1524235963 913058948#0 -1066803876#1 758187584#1 -1066803874#0 -161307636#6 -161307636#5 -161307636#4 -161307636#3 -161307636#2 -161307636#1 -161307636#0 231256251 1107277576 397652152 231256250-AddedOnRampEdge 231256250 700028130 75366764#0 75366764#1 75366764#2 712664803 285877757#0 285877757#1 285877757#2 126271630#3 -126271638#1"/>
    </vehicle>
    <vehicle id="5" depart="10.00">
        <route edges="-53813390#6 -53813390#4 46201986#7 122741943#3 122741943#4 122741943#5 122741943#6 122741943#7 52707339 231807290#1 231807290#2 231807290#3 1290021183#1 1290021183#2 1290021183#3 1290021183#4 1290021181#1 343540927#0 343540927#1 343540927#2 343540927#3 343540927#4 231107718#7 231107718#8"/>
    </vehicle>
    <vehicle id="6" depart="12.00">
        <route edges="-124804195#1 -124804195#0 -72946069 382052405 231829820#0 -132844023#6 -132844023#5 -132844023#4 -132844023#3 -132844023#2 -132844023#1 -132844023#0 701356188#0 701356188#1 701356188#2 701356188#3 701356188#4 701356188#5 758187577#0 758187577#1 758187577#2 913712326 122741943#4 122741943#5 122741943#6 122741943#7 52707339 29422713#1 29422713#2 29422713#3 29422713#4 43593224#1 43593224#2 43593224#3 43593224#4 43593224#5 43593224#7 43593224#8 43593224#10 43593224#11 43593224#12 43593224#13 43593224#14 43593224#17 43593224#18 43593224#20 43593224#21 43593224#22 43593224#23 43593224#24 43593224#25 52708917#0 52708917#1 52708917#2 52708917#4 52708917#5 -52708908#31 -52708908#30"/>
    </vehicle>
    <vehicle id="7" depart="14.00">
        <route edges="356125167#0 663076764#2 24774120#1 52707352 356125166 52707373 504245996#0 504245996#1 356125014#0 356125014#1 356125014#2 356125014#3 24781821 758177650#0 758177650#1 758177650#4 231096127#1 231096127#4 231096127#5 1107163545#1 1107163545#2 39453104#0 39453104#1 39453104#2 39453104#3 39453104#4 39453104#5 39453104#6 39453104#7 39453104#8 39453104#9 249539951#0 249539951#1 249539951#2 249539951#3 1373391426#0 1373391426#1 39453105#1 39453105#2 39453105#3 39453105#4 39453105#5 39453105#6 248806634#0 248806634#1 248806634#2 248806634#3 248806634#4 248806634#5 248806634#6 248806634#7 375552626#0 375552626#1 375552626#2 375552626#3 375552626#4 1010137762#0 39453106 24553123#0 24553123#1 24553123#2 24553123#3 24553123#4 249519085#1"/>
    </vehicle>
    <vehicle id="8" depart="16.00">
        <route edges="-53813392#1 -53813392#0 122741943#7 52707339 29422713#1 29422713#2 29422713#3 29422713#4 43593224#1 43593224#2 43593224#3 43593224#4 43593224#5 43593224#7 43593224#8 43593224#10 43593224#11 43593224#12 43593224#13 43593224#14 1192228399#24 1192228399#25 355718151#1 355718151#2 355718151#3 355718151#4 355718151#6 355718151#7 355718151#10 355718151#11 355718151#12 355718151#16 355718151#19 355718151#20 355718151#21 231102793#0 231102793#1 231102793#2 231102793#3 231102793#4 670931470#1 231095763 663076768#0 663076768#1 663076768#2 663076768#3 29464176#0 29464176#1"/>
    </vehicle>
    <vehicle id="9" depart="18.00">
        <route edges="52707374#5 -99449517#1 39453104#5 39453104#6 39453104#7 39453104#8 39453104#9 249539951#0 249539951#1 249539951#2 249539951#3 1373391426#0 1373391426#1 39453105#1 39453105#2 39453105#3 39453105#4 39453105#5 39453105#6 248806634#0 248806634#1 248806634#2 39453107#0 39453107#1 39453107#2 39453107#3 1358182594#0 1414800904 912370751#1 39451528 491064186#0 491064186#1 1107163519 629645719 1009526220 1009526219 48360967#0 48360967#1 48360967#2 48360967#3 -48360966#3 -48360966#2 -48360966#1 48360959#1 -1107163537#0"/>
    </vehicle>
    <vehicle id="10" depart="20.00">
        <route edges="524285776#4 -1373391428 -698981471#2 99497960#5 99497960#6 39513371#1"/>
    </vehicle>
    <vehicle id="11" depart="22.00">
        <route edges="1192228399#9 -52708907#22 -52708907#21 -52708907#18 -52708907#15 -52708907#12 -52708907#9 -52708907#6 -52708907#3 -52708907#1 53813388#0 53813388#1 53813388#2 53813388#3 -132844025#3 -132844025#2 -132844025#1 -132844025#0 -913712326 -758187577#2 -758187577#1 46208616#0 46208616#1 46208616#2 46208616#3 -46208618#12 -46208618#11 -46208618#10 -46208618#9 -46208618#8 -46208607#7"/>
    </vehicle>
    <vehicle id="12" depart="24.00">
        <route edges="776123665#1 357201828 249519087 915344237 396813948 1240044830 249519086#0 249519086#1 25465013#7 25465013#8 818447514#0 818447514#2 818447514#5 818447514#8 818447514#11 818447514#14 818447514#15 818447514#19 818447514#20 231807299#10 231807299#11 231807299#12 161392547#2 161392547#3 39483211#1 39483211#2 39483211#4 39483211#5 1192228400#2 1192228400#5 1192228400#8 1192228400#9"/>
    </vehicle>
    <vehicle id="13" depart="26.00">
        <route edges="-24827423 249519082 249519079 702574202#0 702574202#1 1240044830 249519086#0 249519086#1 249519086#2 52708915#0 52708915#1 52708915#2 52708915#3 52708915#7 52708915#8 52708915#9 1107163515#1 249539948#1 249539948#2 249539948#3 249539948#4 277739807#11 -277739807#11"/>
    </vehicle>
    <vehicle id="14" depart="28.00">
        <route edges="53813391#8 -53813391#8 -53813391#7 -122741943#5 -122741943#4 -122741943#3 -122741943#2 -122741943#1 -122741943#0 758187584#0 758187584#1 -1066803874#0 356388358#0 356388358#1 53813397#6 160119674#1 -53813398#9 -314481877#1 314481878"/>
    </vehicle>
    <vehicle id="15" depart="30.00">
        <route edges="52707354#1 52707354#2 356065344#0 356065344#1 52708925#0 52708925#1 52708925#2 -1069087687#6 -1069087687#5 -1069087687#4 -1069087687#1 -277739807#28 -277739807#27 -1192228400#15 -1192228400#12 -1192228400#11 -1192228400#9 -1192228400#8 -1192228400#5 -1192228400#2 -355714081#2 -355714081#1 -354299037#1 -354299037#0 -1338768166#7 -1338768166#4 -1338768166#1 -48310673#8 -48310673#7 -48310673#6 -48310673#5 -48310673#4 -48310673#3 48359723#3 48359723#4 421742147#5"/>
    </vehicle>
    <vehicle id="16" depart="32.00">
        <route edges="24601037 374134251#0 -231102082#6 -231102082#5 -231102082#4 231102085#4 231102085#5 504245997#1 504245997#2 504245997#3 356132818#3 356132818#4 356132818#5 1008175881 758177650#0 758177650#1 758177650#4 231096127#1 231096127#4 231096127#5 1107163545#1 1107163545#2 39453104#0 39453104#1 39453104#2 39453104#3 39453104#4 39453104#5 39453104#6 39453104#7 39453104#8 39453104#9 249539951#0 249539951#1 249539951#2 249539951#3 1373391426#0 1373391426#1 39453105#1 39453105#2 39453105#3 39453105#4 39453105#5 39453105#6 248806634#0 248806634#1 248806634#2 248806634#3 248806634#4 248806634#5 248806634#6 248806634#7 375552626#0 375552626#1 375552626#2 375552626#3 375552626#4 1010137762#0 39453106 317977464#0 -357192840#0 913039715#0 913039715#1"/>
    </vehicle>
    <vehicle id="17" depart="34.00">
        <route edges="126274294#5 126274294#6 126277926#3 700028154 700028153#0 700028153#1 700028144#0 700028144#1 700028144#2 700028144#3 700028144#4 700028144#5 700028143#0 700028143#1 700028137#0 700028137#2 700028137#3 700028137#4 700028132#0 700028132#1 1207575731 700028131#0 700028131#1 700028131#2 700028124 1225327253#1 1225327253#2 1225327253#3 121820458 1107277582 285877753 397652160 161307636#0 161307636#1 161307636#2 161307636#3 161307636#4 161307636#5 161307636#6 356388359 1066803875#0 1066803875#1 122741943#0 122741943#1 122741943#2 122741943#3 122741943#4 122741943#5 122741943#6 122741943#7 52707339 231807290#1 231807290#2 231807290#3 1290021183#1 1290021183#2 1290021183#3 1290021183#4 1290021181#1 776123661#1 776123661#2 776123661#3 776123661#4 1483460388#1 1483460388#2 1483460388#3 1483460388#4 1483460388#5 397470156#0 397470156#1 397470157#0 397470157#1 1069073471#1 1069073471#2 706220889#0 706220889#1 248803655#0 1409280513#1 664311322#0 664311322#1 664311322#2 664311322#3 1098152910#0 1098152910#2 1098152910#3 121846043#1 248808903#1 713823578 671386117#0 671386117#1 121846101#0 121846101#1 604751527#0 452336636 121848066#0 121848066#1 121848066#2 121848066#3 121848066#4 24553767#0 24553767#2 333093186 231091819#0 1218065427#0 289957316 276650447#0 276650447#1 276650447#2 231092458 1509384135 657092704#1 1084545859#1 758299957#0 758299957#1 758299957#2 758299958 252574746#0 252574746#1 252574746#2 252574746#3 252574746#4"/>
    </vehicle>
    <vehicle id="18" depart="36.00">
        <route edges="52708917#13 -52708913#10 -52708913#9 -52708913#8 -52708913#7 -52708913#6 -52708913#5 -52708913#4 1192228399#4 1192228399#5 1192228399#6 1192228399#7 1192228399#9 1192228399#12 1192228399#15 1192228399#17 1192228399#18 1192228399#19 1192228399#20 1192228399#21 1192228399#24 1192228399#25 355718151#1 355718151#2 355718151#3 355718151#4 1154411883#0 1154411883#1 1154411883#2 1154411883#5 1154411883#6 1154411883#7 1154411883#8 343738669#0 343738669#1 343738669#2 343738669#3 343738669#4 343738669#5 343738669#6 343738669#7 343738669#8 343738669#9 343738669#10 343738669#11 343738669#12 343738669#13 343738669#14 343738669#15 343738669#17 231107719#2 231107719#3 231107719#4 231107719#5 1098152909#0 1098152909#2 1098152910#0 1098152910#2 1098152910#3 121846043#1 248808903#1 713823578 671386117#0 671386117#1 121846101#0 121846101#1 604751527#0 452336636 121848066#0 121848066#1 121848066#2 121848066#3 121848066#4 24553767#0 24553767#2 333093186 231091819#0 1218065427#0 289957316 276650447#0 276650447#1 276650447#2 231092453 331568010#0 331568010#1"/>
    </vehicle>
    <vehicle id="19" depart="38.00">
        <route edges="545364948#9 545364948#10 545364948#11 52708923#2 52708923#3 52708923#4 52708923#5 52708923#6 52708923#7 52708923#8 758177655#1 758177655#4 758177655#5 231102778#0 231102778#2 231102778#3 231102778#4 231102778#5 231102770#0 231102770#1 231102770#2 231102770#3 231102770#4 231102770#5 231102770#6 231102758#0 231102758#1 231102758#2 231102758#3 231102758#4 231102758#5 231102758#6 231102784#0 231102784#1 1025359784#0 1025359784#1 231103928#0 231103928#1 231103928#2 1025358702 1092508367#0 1092508367#1 1107180158 231103927#0 231103927#1 231103927#2 1049505883#0 1049505883#1 231103925#0 231103925#1 231103925#2 231103925#3 231103925#4 231103925#5 231103925#6 231103925#7 231103925#8 231103925#9 231103925#10 231103925#11 604751524#0 604751524#1 604751526#0 121846101#0 121846101#1 604751527#0 452336636 121848066#0 121848066#1 121848066#2 121848066#3 121848066#4 24553767#0 24553767#2 333093186 231091819#0 1218065427#0 289957316"/>
    </vehicle>
    <vehicle id="20" depart="40.00">
        <route edges="396813960#1 396890099#0 396890099#1 396890099#2 396890099#3 396890099#4 396890099#5 396890099#6 396890099#7 396890099#8 396890099#9 396890099#10 1011937893#0 1011937893#1 1011937893#2 1011937893#3 1011937893#4 396813959#0 396813959#1 1214123449#2 1214123449#4 1214123448#0 1155317927#0 1155317927#1 358926102#1 358926102#2 358926102#3 358926102#4 358926102#5 44867748#0 44867748#1 44867748#2 44867748#4 44867748#5 44867748#6 44867748#7 44867748#8 44867748#9 44867748#10 44867748#11 231095196 663076770#0 397628675#1 231102798#0 231102798#1 231102798#2 231102798#3 231102798#4 231102768#0 231102768#1 355724325#0 355724325#1 355724325#2 355724325#3 355724325#4 355724325#5 355724325#6 355724325#7 355724325#8 355724325#9 355724325#10 355724325#11 355724325#12 1290021182#0 1290021182#1 359607745#0 359607745#1 -122741943#7 -122741943#6 -122741943#5 -122741943#4 -913712326 -758187577#2 -758187577#1 -758187577#0 -701356188#5 -701356188#4 -701356188#3 -701356188#2 -701356188#1 -701356188#0 132844023#0 132844023#1 132844023#2 132844023#3 132844023#4 132844023#5 132844023#6 -132844023#6 -132844023#5 -132844023#4"/>
    </vehicle>
    <vehicle id="21" depart="42.00">
        <route edges="-53814838#0 1233876870 53814838#1 161307636#5 161307636#6 356388359 1066803875#0 1066803876#1"/>
    </vehicle>
    <vehicle id="22" depart="44.00">
        <route edges="-222386034#12 -222386034#11 39994438#2 39994438#3 39994438#4 39994438#5 356134335 522701665#0 522701665#1 522701665#2 356134333#0 356134333#1 249539950#16 249539950#17 249539950#18 249539950#19 249539950#22 249539950#26 249539950#27 1069478249#1 1069478249#4 52708923#0 52708923#1 52708923#2 52708923#3 52708923#4 52708923#5 52708923#6 52708923#7 52708923#8 758177655#1 758177655#4 758177655#5 231102778#0 -655915039#3 -655915039#2 -655915039#1"/>
    </vehicle>
    <vehicle id="23" depart="46.00">
        <route edges="-277739807#24 277739807#24 277739807#25 277739807#26 1192228400#18 249539950#18 249539950#19 249539950#22 249539950#26 249539950#27 1069478249#1 1069478249#4 52708923#0 52708923#1 52708923#2 52708923#3 52708923#4 52708923#5 52708923#6 52708923#7 52708923#8 758177655#1 465147390#23 465147390#24 465147390#25 1009725215#0 1009725215#1"/>
    </vehicle>
    <vehicle id="24" depart="48.00">
        <route edges="343738669#11 343540927#7 343540927#9 343540927#10 232923421#0 232923421#1 232923421#2 693644750 231103933#0 397624480#1 397624480#2 231094631 289598957 1024709875#0 1024709875#1 1024709875#2 354612980#0 354612980#1 354612980#2 354612980#3 1024709874#0 1024709874#1 1004631966 165471576#0 165471576#1 165471576#2 1004631965 730950588#0 730950588#1 1172638281#1 24576603#0 24576603#3 24576603#6 24576603#7 125542069#0 125542069#1 125542069#2"/>
    </vehicle>
    <vehicle id="25" depart="50.00">
        <route edges="126271629#1 48310143#5 48310143#6 48310143#7 48310143#8 48310143#9 48310143#10 700028121#0 285877752#0 121820458 1107277582 285877753 397652160 161307636#0 161307636#1 161307636#2 161307636#3 161307636#4 161307636#5 161307636#6 356388359 1524235963 913058948#0 913058948#1 913058948#2 913058948#3 913058948#4 913058948#5 913058948#6 913058948#7 913058948#8 52710256 356388212#0 -48359723#7 -48359723#6 -52710290#2"/>
    </vehicle>
    <vehicle id="26" depart="52.00">
        <route edges="-92047303#0 -99449517#9 -99498217#0 232888335#1 232888335#2 232888335#3 232888335#4 232888335#5 232888335#6 232888335#7 232888335#8 356134335 522701665#0 522701665#1 522701665#2 356134333#0 356134333#1 249539950#16 249539950#17 -1192228400#18 -1192228400#15 -1192228400#12 -1192228400#11 -1192228400#9 -1192228400#8 -1192228400#5 -1192228400#2 1192228399#0 1192228399#1 1192228399#4 1192228399#5 71184882#2"/>
    </vehicle>
    <vehicle id="27" depart="54.00">
        <route edges="356102528#1 356102528#2 -356102528#2 -356102528#1 -356102528#0 356102529 46208596#5 46208596#6 46208596#7 46208596#8 46208596#9 46208596#10 356388359 1066803875#0 1066803875#1 122741943#0 122741943#1 122741943#2 122741943#3 122741943#4 122741943#5 122741943#6 122741943#7 52707339 29422713#1 29422713#2 29422713#3 29422713#4 43593224#1 43593224#2 43593224#3 43593224#4 43593224#5 43593224#7 43593224#8 43593224#10 43593224#11 43593224#12 43593224#13 43593224#14 43593224#17 43593224#18 43593224#20 43593224#21 43593224#22 43593224#23 43593224#24 43593224#25 38849145#0 38849145#1 38849145#2 38849145#3 38849145#5 38849145#6 38849145#7 38849145#8 38849145#9 38849145#13 38849145#16 38849145#17 38849145#18 231102789#0 231102789#1 231102789#2 231102789#4 231102789#5 231102789#6 231102789#7 659241075#1 659241075#2 231095759 663076761#0 663076761#1 663076761#2 29430884#0 29430884#1 29430884#2 29430884#3 29430884#4 29430884#5 29430884#6 356136666#0 356136666#1 356136666#2 1214135110 223783967 29431396#0 29431396#1 29431396#2 29431396#3 329346464#0"/>
    </vehicle>
    <vehicle id="28" depart="56.00">
        <route edges="-48310677#0 249519086#0 249519086#1 25465013#7 25465013#8 818447514#0 818447514#2 818447514#5 818447514#8 818447514#11 818447514#14 818447514#15 1143615454#3 1143615454#4 1143615454#7 1143615454#10 1143615454#11 48310676#0 48310676#1 48310676#2 48310676#3 48310676#4 48310676#5 48359722#0 48359722#1 48359722#2 48359722#3 -48310673#0 1108070686#3 1108070686#4 421742147#0"/>
    </vehicle>
    <vehicle id="29" depart="58.00">
        <route edges="-46208618#17 46208618#17 46208618#18 46208618#19 -122741943#1 -122741943#0 758187584#0 758187584#1 -1066803874#0 -161307636#6 -161307636#5 -161307636#4 -161307636#3 -161307636#2 -161307636#1 -161307636#0 231256251 1107277576 397652152 231256250-AddedOnRampEdge 231256250 1107277581#0 1107277581#1 700028200#0 700028200#1 700028200#2 700028199#0 700028199#1 700028199#2 700028199#3 700028199#4 700028199#5 700028199#6 700028199#7 700028199#8 700028199#9 700028199#11 700028198#0 700028198#1 700028146#0 700028146#1 700028146#2 700028145#0 700028145#1 700028195#0 700028195#1 700028195#2 1108070691 700028194#1 700028189#0 700028189#1 700028189#2 -53815378#4 -53815378#3 126274294#11 126277925#1"/>
    </vehicle>
    <vehicle id="30" depart="60.00">
        <route edges="942422878#4 942422878#5 942422878#6 727603854#0 52707380#1 52707380#2 52707380#4 95069889#0 95069889#1 -99498354#3 -99498354#2 -99498354#1 232888335#2 232888335#3 232888335#4 232888335#5 232888335#6 232888335#7 232888335#8 356134335 522701665#0 522701665#1 522701665#2 356134333#0 356134333#1 249539950#16 249539950#17 -1192228400#18 -1192228400#15 -1192228400#12 -1192228400#11 -1192228400#9 -1192228400#8 52708909#0 52708909#1 52708909#4 52708909#7 52708909#8 52708909#11 52708909#14 52708909#17 355714079#0 355714079#1 355714079#2"/>
    </vehicle>
    <vehicle id="31" depart="62.00">
        <route edges="260543613#0 260543613#2 260543613#3 263502996 1395970132 657095949#0 657095949#1 657095949#2 -159044281#1 671169136#3 1511981959 1069073478 158958944 43547880#0 43547880#1 43547880#3 43547880#5 1098152911 1011937896#0 1011937896#1 664311321#0 43593221#0 43593221#1 263504521#0 263504521#1 263504521#2 263504521#3 231107712#0 231107712#1 231107712#2 231107712#3 231107712#4 263504522#0 263504522#1 263504522#2 715606127 397459678#0 397459678#1 397459678#2 397459678#3 43593224#1 43593224#2 43593224#3 43593224#4 43593224#5 43593224#7 43593224#8 43593224#10 43593224#11 43593224#12 43593224#13 43593224#14 43593224#17 43593224#18 43593224#20 43593224#21 43593224#22 43593224#23 43593224#24 43593224#25 161392540#0 161392540#1 161392540#2 161392540#3 161392540#5 161392540#6 161392540#7 161392540#8 161392540#9 161392540#10 161392540#14 52707354#1 52707354#2 52707354#3 52707354#4 52707354#5 52707354#6 146610755#1 1107163544#0 1107163544#1 186780309#0 186780309#1 79691012#0 79691012#1 79691012#4 79691012#5 79691012#6 79691012#7 79691012#10 79691012#11 79691012#12 79691012#13 79691012#14 1070035665#2 913486095#1 356123762 1156852188#0 1156852188#1 -158127924#2 -158127924#1 -978293254#1 -914922102 29430647 1154664100#0 1154664100#1 1154664100#2 1154664100#3 706290909 1004633181#0 1004633181#1 382423717#0 382423717#1"/>
    </vehicle>
    <vehicle id="32" depart="64.00">
        <route edges="52710292#7 -52710292#7 -52710292#4 -52710292#1 -1107728292#1 -1338768166#4 -1338768166#1 1346157041#1 1346157041#2 1346157041#3 1346157041#5 1346157041#7 1346157041#8 1346157041#9 48310676#0 48310676#1 48310676#2 48310676#3"/>
    </vehicle>
    <vehicle id="33" depart="66.00">
        <route edges="-53814841#5 52710290#0 -48310682#13 -421742147#6 -421742147#5 -421742147#4 -421742147#3 -421742147#2 -421742147#1 -421742147#0 -52708895#3 -52708895#2 -52708895#0 469975524#7 469975524#8 469975524#9 469975524#10 -210756566#2 -210756566#1 -210756566#0 700028199#4 700028138 126274288#0 126274288#1 126274294#1 -126274283"/>
    </vehicle>
    <vehicle id="34" depart="68.00">
        <route edges="1108070679#0 1108070679#1 48310681#0 48310681#1 48310681#3 358276740 1338768173 39483159#0 39483159#1 39483159#2 1019900305 38713877#0 38713877#1 38713877#2 1339926521 1019900304 504243290#0 504243290#1 248806634#2 39453107#0 39453107#1 39453107#2 39453107#3 39453107#4 1409817769#0-AddedOnRampEdge 1409817769#0 1409817769#1 39509225#0 39509225#1 24775110#6 24775110#7 524285775 524285776#1 524285776#2 524285776#3 524285776#4 -1373391428 -99498179#5 -99498179#4 -99498179#3 -99498179#2 -99498179#1 -99498179#0 232888354#0 -99449517#9"/>
    </vehicle>
    <vehicle id="35" depart="70.00">
        <route edges="-52710262#3 52710262#3 700028199#11 700028198#0 700028198#1 700028146#0 700028146#1 700028146#2 700028145#0 700028145#1 700028195#0 700028195#1 700028195#2 1108070691 700028194#1 700028189#0 700028189#1 700028189#2 1108070683#0 1108070683#1 1108070683#2 1108070690#0 1108070690#1 1108070690#4 700028188#0 700028188#1 638082302#0 638082302#1 638082302#2 638082302#3 638082302#4 638082302#5 638082302#6 700028186#0 700028186#1 700028186#2 700028184 87348662 249539942#1 776123665#0 776123665#1 48359736#0 48359736#1 48359736#2 249539943 725981230"/>
    </vehicle>
    <vehicle id="36" depart="72.00">
        <route edges="655897911 1108070691 -53815388#2 -53815388#1 -53815388#0 469975524#3 469975524#4 469975524#5 469975524#6 469975524#7 469975524#8 469975524#9 469975524#10 -53813396#16 469975527#3 469975527#5 469975527#6 161320940#0 161320940#1 161307636#1 -397652150#1 -397652150#0 -397652165#6 -397652165#5 -397652165#3 -397652165#2 -397652165#1 -397652165#0 -285877769#2 1134137431#0"/>
    </vehicle>
    <vehicle id="37" depart="74.00">
        <route edges="356134336#2 356134336#3 356134336#4 356134336#5 79691012#0 79691012#1 1067300042#7 1067300042#8 1067300042#10 1067300042#11 1067300042#12 1067300042#15 1067300042#16 1067300042#17 24775740#1 24775740#2 24775740#3 24775740#4 758177654#0 758177654#1 758177654#2 758177654#3 700183100#1 700183100#2 700183100#3 700183100#4 700183100#5 700183100#6 700183100#7 701173579#0 701173579#1 701173579#2 701173579#3 701173579#4 701173579#5 343540920#1 343540920#2 343540920#3 343540920#4 343540920#7 343540920#8 343540920#10 343540920#11 343540920#13 343540920#14 343540920#15 343540920#17 343540920#18 343540920#19 343540920#20 343540920#21 1339909981 359642542 1339926516#0"/>
    </vehicle>
    <vehicle id="38" depart="76.00">
        <route edges="700028124 75366764#0 75366764#1 75366764#2 75366764#3 712664797 285877770#0 285877770#1 285877770#2 195718579 195718577#0 195718577#1 195718577#2"/>
    </vehicle>
    <vehicle id="39" depart="78.00">
        <route edges="-913847619 -359561460#1 -359561460#0 -641403915#3 43547880#0 43547880#1 43547880#3 43547880#5 1098152911 1011937896#0 1011937896#1 664311321#0 43593221#0 43593221#1 263504521#0 263504521#1 263504521#2 263504521#3 231107712#0 231107712#1 231107712#2 231107712#3 231107712#4 263504522#0 263504522#1 263504522#2 715606127 397459678#0 397459678#1 397459678#2 397459678#3 43593224#1 43593224#2 43593224#3 43593224#4 43593224#5 43593224#7 43593224#8 43593224#10 43593224#11 43593224#12 43593224#13 43593224#14 43593224#17 43593224#18 43593224#20 43593224#21 43593224#22 43593224#23 43593224#24 43593224#25 161392540#0 161392540#1 161392540#2 161392540#3 161392540#5 161392540#6 161392540#7 161392540#8 161392540#9 161392540#10 161392540#14 52707354#1 52707354#2 52707354#3 52707354#4 52707354#5 52707354#6 146610755#1 39453104#0 39453104#1 39453104#2 39453104#3 39453104#4 39453104#5 522701665#1 522701665#2 356134841#0 -749651782"/>
    </vehicle>
    <vehicle id="40" depart="80.00">
        <route edges="264923445#3 264923445#4 46208601#5 46208601#6 46208601#7 46208601#8 46208601#9 46208601#10 701356188#2 701356188#3 701356188#4 701356188#5 758187577#0 758187577#1 758187577#2 913712326 122741943#4 122741943#5 122741943#6 122741943#7 52707339 29422713#1 29422713#2 29422713#3 29422713#4 43593224#1 43593224#2 43593224#3 43593224#4 43593224#5 43593224#7 43593224#8 43593224#10 43593224#11 43593224#12 43593224#13 43593224#14 43593224#17 43593224#18 43593224#20 43593224#21 43593224#22 43593224#23 43593224#24 43593224#25 161392540#0 161392540#1 161392540#2 161392540#3 161392540#5 161392540#6 161392540#7 161392540#8 161392540#9 161392540#10 161392540#14 52707354#1 52707354#2 52707354#3 52707354#4 52707354#5 52707354#6 146610755#1 1107163544#0 1107163544#1 186780309#0 186780309#1 99449521#0 99449521#1 1107163543 -99449527#1 -99449527#0 39453109 1067300042#1 91868276#0 91868276#1 356126885#1 356126885#2 356126885#3 356126885#4 356126885#5 52707386#2 52707386#3 52707386#4 1106889698#1 1106889697#1 1106889697#2 92119148#0 92119148#1 92119148#2 -92119148#2 -92119148#1 -92119148#0"/>
    </vehicle>
    <vehicle id="41" depart="82.00">
        <route edges="29430884#1 356133262#1 356133262#2 358926094#7 39483151#0 39483151#2 231095764 663076766#0"/>
    </vehicle>
    <vehicle id="42" depart="84.00">
        <route edges="1339926521 1339926522#0 1339926522#1 504243291 25465013#0 25465013#1 25465013#2 25465013#3 25465013#4 25465013#5 25465013#6 25465013#7 25465013#8 818447514#0 818447514#2 818447514#5 818447514#8 818447514#11 818447514#14 818447514#15 1143615454#3 1143615454#4 1143615454#7 1143615454#10 1143615454#11 48310676#0 48310676#1 48310676#2 48310676#3 48310676#4 48310676#5 48359722#0 48359722#1 48359722#2 48359722#3 48359722#4 53813398#0 53813398#1 53813398#2 53813398#3 53813398#4 53813398#5 53813398#6 53813398#7 53814836#2 1103531753#4 1103531753#5 1103531753#6 -356388358#2 -53813397#5 -53813397#4"/>
    </vehicle>
    <vehicle id="43" depart="86.00">
        <route edges="99450046#8 99450046#9 260840128 39994439#0 39994439#1 1356434783#0 1356434783#1 1356434783#2 1332734448 186776880 -1107163538 1107163518 186776883#0 186776883#1 186776883#2 186776883#3 39563507#0 39563507#1 39563507#2 39563507#3 39563506#0 39563506#1 504243291 25465013#0 25465013#1 25465013#2 25465013#3 25465013#4 25465013#5 25465013#6 25465013#7 25465013#8 818447514#0 818447514#2 818447514#5 818447514#8 818447514#11 818447514#14 818447514#15 818447514#19 818447514#20 231807299#10 231807299#11 231807299#12 161392547#2 161392547#3 39483211#1 39483211#2 39483211#4 39483211#5 1192228399#0 1192228399#1 1192228399#4 1192228399#5 1192228399#6 1192228399#7 1192228399#9 -52708907#22 -52708907#21 -52708907#18 -52708907#15 -52708907#12 -52708907#9 -52708907#6 -52708907#3 -52708907#1 186406391#6 186406391#7 186406391#8 186406391#9 231807292#5 231807292#6"/>
    </vehicle>
    <vehicle id="44" depart="88.00">