<?xml version="1.0" encoding="UTF-8"?>

<!-- generated on 2026-06-20 14:32:55.514904 by Eclipse SUMO randomTrips.py v1_27_0+0000-e238ea04b71
<configuration>
    <net-file value="C:\Users\cjean\Documents\Git\CAmbiente\data/map/curitiba.net.xml"/>
    <weights-prefix value="C:\Users\cjean\Documents\Git\CAmbiente\data\traffic\tomtom_weights"/>
    <route-file value="C:\Users\cjean\Documents\Git\CAmbiente\data/traffic/tomtom_peak.rou.xml"/>
    <period value="1.0"/>
</configuration>
-->

<!-- generated on 2026-06-20T14:32:53.179296-03:00 by Eclipse SUMO duarouter 1.27.0
<duarouterConfiguration xmlns:xsi="http://www.w3.org/2001/XMLSchema-instance" xsi:noNamespaceSchemaLocation="http://sumo.dlr.de/xsd/duarouterConfiguration.xsd">

    <input>
        <net-file value="C:\Users\cjean\Documents\Git\CAmbiente\data/map/curitiba.net.xml"/>
        <route-files value="trips.trips.xml"/>
    </input>

    <output>
        <output-file value="C:\Users\cjean\Documents\Git\CAmbiente\data/traffic/tomtom_peak.rou.xml"/>
        <alternatives-output value="NUL"/>
    </output>

    <processing>
        <routing-threads value="6"/>
    </processing>

    <time>
        <begin value="0"/>
        <end value="3600.0"/>
    </time>

    <report>
        <no-warnings value="true"/>
        <ignore-errors value="true"/>
        <no-step-log value="true"/>
    </report>

</duarouterConfiguration>
-->

<routes xmlns:xsi="http://www.w3.org/2001/XMLSchema-instance" xsi:noNamespaceSchemaLocation="http://sumo.dlr.de/xsd/routes_file.xsd">
    <vehicle id="0" depart="0.00">
        <route edges="357220475#5 370094378#0 370094378#1 370094378#2 370094378#3 503876751#0 503876751#1 503876751#2 316394251#0 316394251#1 316394251#3 316394251#4 316394251#5 316394251#6 316394251#7 317975004#0 317975004#1 317975004#2 398531841#0 398531841#1 398531841#2 398531841#3 333070956#0 333070956#1 397470156#0 397470156#1 -263504526#1 -263504526#0 -706220871#2 -1217772069#1 -1217772069#0 397773658#0 397773658#1 397773658#2 397773658#3 124792698 912640785#0 912640785#1 124792700#0 124792700#1 124792700#2 124792700#3 -124792700#3 -124792700#2"/>
    </vehicle>
    <vehicle id="1" depart="1.00">
        <route edges="129320876#1 231103924#2 706220883 706220882#0 660019015#0 660019015#1 660019015#2 706220881#2 706220881#3 706220881#4 706220881#5 706220881#6 706220888#0 706220884 706220885#0 1014985841#1 1014985840#0 706220886#0 706220886#1 706220886#2 706220880#0 397773658#0 397773658#1 397773658#2 397773658#3 124792701#0 124792701#1 115672722#0 682951621#0 682951621#2 682951621#3 397652163#2 397652163#3 701356188#4 701356188#5 758187577#0 758187577#1 758187577#2 913712326 -122741943#3 -122741943#2 -122741943#1 -122741943#0 758187584#0 758187584#1 -1066803874#0 356388358#0 356388358#1 356388358#2 -53814837#6 -53814837#5 -53814837#4"/>
    </vehicle>
    <vehicle id="2" depart="2.00">
        <route edges="40590999#5 396813959#0 396813959#1 1214123449#2 1214123449#4 1214123448#0 1155317927#0 1155317927#1 358926102#1 358926102#2 358926102#3 358926102#4 358926102#5 44867748#0 44867748#1 44867748#2 44867748#4 44867748#5 44867748#6 44867748#7 44867748#8 44867748#9 44867748#10 44867748#11 231095196 663076770#0 397628675#1 231102798#0 231102798#1 231102798#2 231102798#3 231102798#4 231102768#0 231102768#1 355724325#0 371941812#0 371941812#1 371941807#0 371941807#1"/>
    </vehicle>
    <vehicle id="3" depart="3.00">
        <route edges="663076760#0 418124690#0 418124690#1 289829976#5 289829976#6 289829976#7 289829976#9 289829976#11 289829976#12 289829976#13 -663076693#5 -663076693#4 -663076693#3 -663076693#1 -663076693#0 1154176158 1154176156 -663076692#1 -663076692#0 289829956#0 289829956#1 289829956#2 1052864211 248813647 24576628 125542086 685541544#0 685541544#1 685541544#2 685541544#3 663076695#0 663076695#1 663076695#2 663076700#0 663076700#1 663076700#2 263505507#1 263505507#2 263505507#3 1024709875#0 1024709875#1 1024709875#2 354612980#0 354612980#1 354612980#2 354612980#3 1024709874#0 1024709874#1 263505518 380939603#0 380939603#1 380939603#2 380939603#3 380939603#4 380939603#5 24576630#0 693645931 693645930#1 380939618#0 380939623#0 758309901 231094153#0 231094153#1 231094153#2 231094153#3 231094153#4 24553696#0 24553696#1 24553696#2 24553696#3 24553696#4 24553696#5 758299958 252574746#0 252574746#1 252574746#2 252574746#3 252574746#4 715606133 -715606134#2 -715606134#1 -715606134#0 24576023#0 24576023#1 24576027 -24576379#4"/>
    </vehicle>
    <vehicle id="4" depart="4.00">
        <route edges="231102758#6 231102784#0 231102768#1 355724325#0 355724325#1 355724325#2 355724325#3 355724325#4 355724325#5 355724325#6 355724325#7 355724325#8 355724325#9 355724325#10 355724325#11 355724325#12 1290021182#0 1290021182#1 359607745#0 359607745#1 -122741943#7 -122741943#6 -122741943#5 -122741943#4 -122741943#3 -122741943#2 -122741943#1 -122741943#0 758187584#0 758187584#1 -1066803874#0 -161307636#6 -161307636#5 -161307636#4 -161307636#3 -161307636#2 -161307636#1 -161307636#0 231256251 1107277576 397652152 231256250-AddedOnRampEdge 231256250 700028130 75366764#0 75366764#1 75366764#2 712664803 285877757#0 285877757#1 285877757#2 126271630#3 -126271638#1"/>
    </vehicle>
    <vehicle id="5" depart="5.00">
        <route edges="1217764418#1 231828925#1 231828925#2 231828925#3 231828925#4 231107708#0 231107708#2 1262797962#0 1262797962#1 1262797962#2 1262797962#3 1262797962#4 1262797961 1004721187 231107716#0 231107716#1 231107717#0 231107719#2"/>
    </vehicle>
    <vehicle id="6" depart="6.00">
        <route edges="-24774055#1 -24774055#0 -1270649732 -1270649733 -1270649734 -1270649735#2 -1270649735#1 1270649735#1 1270649735#2 1270649734 1270649733 1270649732 24774055#0 24774055#1 289829976#0 289829976#1 289829976#2 289829976#3 289829976#4 289829976#5 289829976#6 289829976#7 289829976#9 289829976#11 289829976#12 289829976#13 -663076693#5 -663076693#4 -663076693#3 -663076693#1 -663076693#0 1154176158 39483151#0 39483151#2 231095764 663076766#0 659241080#0 659241080#1 659241080#2 659241080#3 231102787#0 231102787#1 231102787#2 231102787#5 231102787#6 231102787#10 231102787#11 231102787#12 231102787#13 231102787#14 231102787#15 231102787#16 231102787#17 231102787#18 231102787#20 231102787#21 701173580 33068457#0 33068457#1 33068457#2 33068457#5 52708908#26 52708908#27 52708908#28 -52708908#28"/>
    </vehicle>
    <vehicle id="7" depart="7.00">
        <route edges="358926102#3 358926102#4 358926102#5 44867748#0 44867748#1 44867748#2 -356133262#6 -356133262#5 -356133262#4 -356133262#3 358926094#7 39483151#0 39483151#2 231095764 663076766#0 659241080#0 659241080#1 659241080#2 659241080#3 231102787#0 231102787#1 231102787#2 231102787#5 231102787#6 231102787#10 231102787#11 231102787#12 231102787#13 231102787#14 231102787#15 231102787#16 231102787#17 231102787#18 231102787#20 231102787#21 701173580 33068457#0 33068457#1 33068457#2 33068457#5 33068457#8 33068457#11 33068457#14 33068457#17 33068457#20 33068457#21 33068457#22 33068457#23 33068457#24 33068457#25 33068457#26 33068457#29 33068457#30 356133838#2 356133838#5 356133838#6 356133838#7 356133838#9 356133838#10 356133838#12 356133838#13 356133838#14 356133838#15 356133838#16 48310685#0 48310685#1 48310685#2 48310685#3 231807293#9 231807293#11 1490905203#0 1490905203#1 1490905202#1 524285760 1338768171#1 1338768170 524285761#0 524285761#1 524285761#2 725981230 48310689#0 48310689#1 24827423 396919506#0 396919506#1 396919503 740573585 776883019#0 776883019#1 249519085#1"/>
    </vehicle>
    <vehicle id="8" depart="8.00">
        <route edges="1217845814#2 45253692#0 45253692#1 1409280532#0 -257956761#2 -257956761#1 -257956761#0 382052395 382052402 1409280536 1409280535 231829820#0 -132844023#6 -132844023#5 -132844023#4 -132844023#3 -132844023#2 -132844023#1 -132844023#0 701356188#0 701356188#1 701356188#2 701356188#3 701356188#4 701356188#5 758187577#0 758187577#1 758187577#2 913712326 122741943#4 122741943#5 122741943#6 122741943#7 52707339 29422713#1 29422713#2 29422713#3 29422713#4 43593224#1 43593224#2 43593224#3 43593224#4 43593224#5 43593224#7 43593224#8 43593224#10 43593224#11 43593224#12 43593224#13 43593224#14 1192228399#24 1192228399#25 355718151#1 355718151#2 355718151#3 355718151#4 355718151#6 355718151#7 355718151#10 355718151#11 355718151#12 355718151#16 355718151#19 355718151#20 355718151#21 231102793#0 231102793#1 231102793#2 231102793#3 231102793#4 670931470#1 231095763 663076768#0 663076768#1 663076768#2 663076768#3 29464176#0 29464176#1 29464176#2"/>
    </vehicle>
    <vehicle id="9" depart="9.00">
        <route edges="52707373 504245996#0 504245996#1 356125014#0 356125014#1 356125014#2 356125014#3 24781821 758177650#0 758177650#1 758177650#4 231096127#1 231096127#4 231096127#5 1107163545#1 1107163545#2 39453104#0 39453104#1 39453104#2 39453104#3 39453104#4 39453104#5 39453104#6 39453104#7 39453104#8 39453104#9 249539951#0 249539951#1 249539951#2 249539951#3 1373391426#0 1373391426#1 39453105#1 39453105#2 39453105#3 39453105#4 39453105#5 39453105#6 248806634#0 248806634#1 248806634#2 248806634#3 248806634#4 248806634#5 248806634#6 248806634#7 375552626#0 375552626#1 375552626#2 375552626#3 375552626#4 1010137762#0 725981229#1 739458964#0 739458964#1 739458964#2 739458964#3 739458964#4 375552632#2 375552632#3 375552632#4 375552632#5 375552632#6 375552632#8 375552632#9 739458965 1107163535 -1107163537#1"/>
    </vehicle>
    <vehicle id="10" depart="10.00">
        <route edges="504245996#0 504245996#1 356125014#0 356125014#1 356125014#2 356125014#3 24781821 758177650#0 758177650#1 758177650#4 231096127#1 231096127#4 231096127#5 1107163545#1 1107163545#2 39453104#0 39453104#1 39453104#2 39453104#3 39453104#4 39453104#5 39453104#6 39453104#7 39453104#8 39453104#9 249539951#0 249539951#1 249539951#2 249539951#3 1373391426#0 1373391426#1 39509226#0 39509226#1"/>
    </vehicle>
    <vehicle id="11" depart="11.00">
        <route edges="195556937#2 195556937#3 195556937#4 195556937#5 195556937#6 195556937#7 195556937#8 252577424#0 252577424#1 195655598#1 24553948#0 1218080335#0 1218080335#1 925262419#1 925262419#2 925262419#3 397121350#0 397121350#1 397121350#2 121846057#0 121846057#1 660018999#0 659237718 382045028 263502996 1395970132 657095949#0 657095949#1 657095949#2 -159044281#1 671169136#3 1511981959 1069073478 158958944 43547880#0 43547880#1 43547880#3 671169137 659237713#0 659237713#1 685150642 1409280538 706220872#0 69966122#1 706220880#0 397773658#0 397773658#1 397773658#2 397773658#3 124792701#0 124792701#1 115672722#0 682951621#0 682951621#2 682951621#3 397652163#2 397652163#3 701356188#4 -46208607#3"/>
    </vehicle>
    <vehicle id="12" depart="12.00">
        <route edges="706220889#0 706220889#1 248803655#0 664311321#0 43593221#0 43593221#1 263504521#0 263504521#1 263504521#2 263504521#3 231107712#0 231107712#1 231107712#2 231107712#3 231107712#4 263504522#0 263504522#1 263504522#2 715606127 397459678#0 397459678#1 397459678#2 397459678#3 43593224#1 43593224#2 43593224#3 43593224#4 43593224#5 43593224#7 43593224#8 43593224#10 43593224#11 43593224#12 43593224#13 43593224#14 43593224#17 43593224#18 701173580 33068457#0 33068457#1 33068457#2 33068457#5 33068457#8 33068457#11 33068457#14 33068457#17 33068457#20 33068457#21 1192228400#5 1192228400#8 1192228400#9"/>
    </vehicle>
    <vehicle id="13" depart="13.00">
        <route edges="1011937893#1 1011937893#2 223784049#2 223784049#3 223784049#4 223784049#5 223784049#6 223784049#7 223784049#8 223784049#9 223784049#10 223784049#11 223784049#12 223784049#13 223784049#14 223784049#15 289829977#0 289829977#1 1008175885 663076762#0 663076762#1 663076762#2 24586335 356132818#0 356132818#1 356132818#3 356132818#4 356132818#5 1008175881 758177650#0 758177650#1 758177650#4 231096127#1 231096127#4 231096127#5 1107163545#1 1107163545#2 39453104#0 39453104#1 39453104#2 39453104#3 39453104#4 39453104#5 39453104#6 39453104#7 39453104#8 39453104#9 249539951#0 249539951#1 249539951#2 249539951#3 39513372#0 39513372#1 39513372#2 1107163516#0 1107163516#1 1107163516#2 39513374#1 -277739807#7 -277739807#4 -277739807#1"/>
    </vehicle>
    <vehicle id="14" depart="14.00">
        <route edges="660019007#0 660019007#1 466217583 1237873475 24554058 1237916687#1 660019008 121846057#0 121846057#1 660018999#0 659237718 382045028 263502996 1395970132 657095949#0 657095949#1 657095949#2 -159044281#1 671169136#3 1511981959 1069073478 158958944 43547880#0 43547880#1 43547880#3 671169137 659237713#0 659237713#1 685150642 1409280538 706220872#0 69966122#1 706220880#0 397773658#0 397773658#1 397773658#2 397773658#3 124792701#0 124792701#1 115672722#0 682951621#0 682951621#2 682951621#3 397652163#2 397652163#3 701356188#4 701356188#5 758187577#0 758187577#1 758187577#2 913712326 -122741943#3 -122741943#2 -122741943#1 -122741943#0 -758187585#2 314481879#2"/>
    </vehicle>
    <vehicle id="15" depart="15.00">
        <route edges="504245999 24554058 1237916687#1 660019008 121846057#0 121846057#1 660018999#0 659237718 382045028 263502996 1395970132 657095949#0 657095949#1 657095949#2 -159044281#1 671169136#3 1511981959 1069073478 158958944 43547880#0 43547880#1 43547880#3 671169137 659237713#0 659237713#1 685150642 1409280538 706220872#0 69966122#1 706220880#0 397773658#0 397773658#1 397773658#2 397773658#3 124792701#0 124792701#1 115672722#0 682951621#0 682951621#2 682951621#3 397652163#2 397652163#3 701356188#4 701356188#5 758187577#0 758187577#1 758187577#2 913712326 -122741943#3 -122741943#2 46208618#20 46208618#21 46208618#22 46208618#23 46208618#24 52710256 356388211#0 356388211#1 356388211#2 356388211#3 356388211#4 421742147#4 421742147#5"/>
    </vehicle>
    <vehicle id="16" depart="16.00">
        <route edges="252577424#0 252577424#1 195655598#1 24553948#0 1218080335#0 1218080335#1 925262419#1 925262419#2 925262419#3 397121350#0 397121350#1 397121350#2 47515622#0 47515622#1 47515622#2 47515622#3 47515622#4 47515622#5 1154411887#1 1154411888#0 1154411888#1 1154411888#2 1154411889#1 458317564 409826717#0 409826717#2 706220881#2 706220881#3 706220881#4 706220881#5 706220881#6 706220888#0 706220884 706220885#0 43593221#0 43593221#1 263504521#0 263504521#1 263504521#2 263504521#3 231107712#0 231107712#1 231107712#2 231107712#3 231107712#4 263504522#0 263504522#1 263504522#2 715606127 397459678#0 397459678#1 397459678#2 397459678#3 43593224#1 43593224#2 43593224#3 43593224#4 43593224#5 43593224#7 43593224#8 43593224#10 43593224#11 43593224#12 43593224#13 43593224#14 43593224#17 43593224#18 701173580 33068457#0 33068457#1 33068457#2 33068457#5 33068457#8 33068457#11 33068457#14 33068457#17 33068457#20 33068457#21 33068457#22 33068457#23 33068457#24 33068457#25 33068457#26 33068457#29 33068457#30 356133838#2 356133838#5 356133838#6 356133838#7 356133838#9 356133838#10 356133838#12 356133838#13 356133838#14 356133838#15 356133838#16 48310685#0 48310685#1 48310685#2 48310685#3 231807293#9 231807293#11 1490905203#0 1490905203#1 1490905202#1 524285760 1338768171#1 1338768170 524285761#0 524285761#1 524285761#2 524285758#1 524285757 410044039 231254034#0 52711936#0 52711936#1 52711936#2 913039715#0 913039715#1 913039715#2"/>
    </vehicle>
    <vehicle id="17" depart="17.00">
        <route edges="231094632 -28745211#2 -28745211#1 -28745211#0 663076695#2 663076700#0 663076700#1 663076700#2 263505507#1 263505507#2 263505507#3 1024709875#0 1024709875#1 1024709875#2 354612980#0 354612980#1 354612980#2 354612980#3 1024709874#0 1024709874#1 263505518 380939603#0 380939603#1 380939603#2 380939603#3 380939603#4 380939603#5 24576630#0 693645931 693645930#1 380939618#0 380939623#0 758309901 231094153#0 231094153#1 231094153#2 231094153#3 231094153#4 24553696#0 24553696#1 24553696#2 24553696#3 24553696#4 24553696#5 758299958 252574746#0 252574746#1 252574746#2 252574746#3 252574746#4"/>
    </vehicle>
    <vehicle id="18" depart="18.00">
        <route edges="641403915#2 43547880#0 -30011070#3 -30011070#2 -30011070#1 1011937879#1 1011937879#2 452336637 452336639#0 458685556#0 458685556#2 24553779#0 452336636 121848066#0 121848066#1 121848066#2 121848066#3 121848066#4 24553767#0 24553767#2 333093186 231091819#0 1218065427#0 289957316 276650447#0 276650447#1 276650447#2 231092453 331568010#0"/>
    </vehicle>
    <vehicle id="19" depart="19.00">
        <route edges="663076693#1 663076693#3 663076693#4 663076693#5 -663076693#5 -663076693#4 -663076693#3 -663076693#1 -663076693#0 1154176158 39483151#0 39483151#2 231095764 663076766#0 659241080#0 659241080#1 659241080#2 659241080#3 231102802#0 231102802#1 231102802#2 231102802#3 231102802#4 231102802#5 231102800 231102798#0 231102798#1 231102798#2 231102798#3 231102798#4 1025359783 231102761#0 231102761#1 231103932#0 231103932#1 1025358701 1025358700 231103921#0 231103921#1 231103921#2 231101546 1107180157 1049505885 1049505884 664929059#0 664929059#1 1049505882#0 1049505882#1 1049505882#2 56235458#0 56235458#1 56235458#2 56235458#3 231103922#0 231103922#1 604751526#0 121846101#0 121846101#1 604751527#0 452336636 121848066#0 121848066#1 121848066#2 121848066#3 121848066#4 24553767#0 24553767#2 333093186 231091819#0 1218065427#0 289957316"/>
    </vehicle>
    <vehicle id="20" depart="20.00">
        <route edges="380939621#0 380939621#2 1488136316 663076751#0 663076751#1 663076751#2 663076751#3 465279493#0 465279493#2 663076750#0 663076724#1 706220869 231103924#0 231103924#1 231103924#2 706220883 706220882#0 660019015#0 660019015#1 660019015#2 706220881#2 706220881#3 706220881#4 706220881#5 706220881#6 706220888#0 706220884 706220885#0 1014985841#1 1014985840#0 706220886#0 706220886#1 706220886#2 -69966122#1 -706220872#1 1409280537#0 1409280537#2 1409280537#3 -72946069 382052405 231829820#0 -132844023#6 -132844023#5 -132844023#4"/>
    </vehicle>
    <vehicle id="21" depart="21.00">
        <route edges="121846075#3 663066041#0 663066041#1 663066043#1 663066042 1011937893#0 1011937893#1 1011937893#2 1011937893#3 1011937893#4 396813959#0 396813959#1 1214123449#2 1214123449#4 1214123448#0 1155317927#0 1155317927#1 358926102#1 358926102#2 358926102#3 358926102#4 358926102#5 44867748#0 44867748#1 44867748#2 44867748#4 44867748#5 44867748#6 44867748#7 44867748#8 44867748#9 44867748#10 44867748#11 231095196 663076770#0 397628675#1 231102798#0 231102798#1 231102798#2 231102798#3 231102798#4 231102768#0 231102768#1 355724325#0 355724325#1 355724325#2 355724325#3 355724325#4 355724325#5 355724325#6 355724325#7 355724325#8 355724325#9 355724325#10 355724325#11 355724325#12 1290021182#0 1290021182#1 359607745#0 359607745#1 -122741943#7 -122741943#6 -122741943#5 -122741943#4 -122741943#3 -122741943#2 -122741943#1 -122741943#0 758187584#0 1066803876#1"/>
    </vehicle>
    <vehicle id="22" depart="22.00">
        <route edges="1024709868#0 1024709868#1 1024709868#2 663076760#0 663076760#1 663076760#2 663076760#3 1008175885 663076762#0 663076762#1 663076762#2 24586335 356132818#0 356132818#1 356132818#3 356132818#4 356132818#5 1008175881 758177650#0 758177650#1 758177650#4 231096127#1 231096127#4 231096127#5 1107163545#1 1107163545#2 39453104#0 39453104#1 39453104#2 39453104#3 39453104#4 39453104#5 39453104#6 39453104#7 39453104#8 39453104#9 249539951#0 249539951#1 249539951#2 249539951#3 1373391426#0 1373391426#1 39453105#1 39453105#2 39453105#3 39453105#4 39453105#5 39453105#6 248806634#0 248806634#1 248806634#2 248806634#3 248806634#4 248806634#5 248806634#6 248806634#7 375552626#0 375552626#1 375552626#2 375552626#3 375552626#4 1010137762#0"/>
    </vehicle>
    <vehicle id="23" depart="23.00">
        <route edges="357220475#2 357220475#3 357220475#4 357220475#5 370094378#0 370094378#1 370094378#2 370094378#3 316393925#0 316393925#1 316393925#2 316393925#3 371941800#0 371941800#1 371941798#0 371941798#1 371941798#2 371941798#3 371941798#4 371941798#5 371941798#6 371941812#0 371941812#1 343738670#11 343738670#12 343738670#13 231102775#0 231102775#1 231101469#2 231101469#4 231095194 663076772 663076696 125542072#0"/>
    </vehicle>
    <vehicle id="24" depart="24.00">
        <route edges="231092960#0 231092960#1 113798873 113798872#0 113798872#1 113798872#2 55200329#0 55200329#1 55200329#2 409826715#0 409826715#2 231093229 663076750#0 663076724#1 706220869 231103924#0 231103924#1 231103924#2 706220883 706220882#0 660019015#0 660019015#1 660019015#2 706220881#2 706220881#3 706220881#4 706220881#5 706220881#6 706220888#0 706220884 706220885#0 1014985841#1 1014985840#0 706220886#0 706220886#1 706220886#2 706220880#0 397773658#0 397773658#1 397773658#2 397773658#3 124792701#0 124792701#1 115672722#0 682951621#0 682951621#2 682951621#3 397652163#2 397652163#3 701356188#4 701356188#5 758187577#0 758187577#1 758187577#2 913712326 132844025#0 132844025#1 132844025#2 132844025#3 132844025#4 132844025#5 53813396#3 53813396#4 -48359721#9 -52710290#1"/>
    </vehicle>
    <vehicle id="25" depart="25.00">
        <route edges="127724111#1 231094153#0 1240342247 231092960#0 231092960#1 113798873 113798872#0 113798872#1 113798872#2 55200329#0 55200329#1 55200329#2 409826715#0 409826715#2 55200327#0 55200327#2 654376980#0 654376980#1 663076749#0 663076749#1 291468708#0 291468708#1 1268032602 291469317#0 913176816 231094423#1 231094423#2 397646588#0 397646588#1 397646588#2 397646588#3 397646588#4 397646588#5 231094634 663076743#0 663076743#1 397646589 231094851#0 231094851#1 231094851#2 663076774#0 670931465#1 231102768#0 231102768#1 371941804#0 371941804#1 371941804#2 371941804#3 371941804#4 371941804#5 371941804#6 371941801 371941809 465415653#0 465415653#1 316398450#0 316398450#1 465147390#0 465147390#1 465147390#2 465147390#3 465147390#6 231102787#5 231102787#6 231102787#10 231102787#11 231102787#12 231102787#13 231102787#14 231102787#15 231102787#16 231102787#17 231102787#18 231102787#20 231102787#21 701173580 33068457#0 33068457#1 33068457#2 33068457#5 33068457#8 33068457#11 33068457#14 -71184882#3 -71184882#2 71184882#2"/>
    </vehicle>
    <vehicle id="26" depart="26.00">
        <route edges="358926102#0 358926102#1 358926102#2 358926102#3 663066018#6 663066018#7 663066018#8 663066018#9 1214381503#0 1214381503#1 1214381503#2 700187123#1 223783966#0 223783966#1 29431396#0 29431396#1 29431396#2 29431396#3 329346464#0 329346464#1"/>
    </vehicle>
    <vehicle id="27" depart="27.00">
        <route edges="787325782 47515631#0 24553948#0 1218080335#0 1218080335#1 925262419#1 925262419#2 925262419#3 397121350#0 397121350#1 397121350#2 47515622#0 47515622#1 47515622#2 47515622#3 47515622#4 47515622#5 1154411887#1 1154411888#0 1154411888#1 1154411888#2 1154411889#1 458317564 409826717#0 409826717#2 706220881#2 706220881#3 706220881#4 706220881#5 706220881#6 706220888#0 706220884 706220885#0 43593221#0 43593221#1 263504521#0 263504521#1 263504521#2 263504521#3 231107712#0 231107712#1 231107712#2 231107712#3 231107712#4 263504522#0 263504522#1 263504522#2 715606127 397459678#0 397459678#1 397459678#2 397459678#3 43593224#1 43593224#2 43593224#3 43593224#4 43593224#5 -52710292#26 -52710292#24 -52710292#23 -52710292#22 -52710292#21 -52710292#20 -52710292#19 355714079#15"/>
    </vehicle>
    <vehicle id="28" depart="28.00">
        <route edges="289957317#0 289957317#1 231091820#0 55200331 55200328#0 55200328#1 663076752 663076751#0 663076751#1 663076751#2 663076751#3 465279493#0 465279493#2 465279492#0 55200326#0 55200326#1 55200326#2 163214480#0 163214480#1 163214480#2 231094424 465279491 1268032599 231094423#0 231094423#1 231094423#2 397646588#0 397646588#1 397646588#2 397646588#3 397646588#4 397646588#5 231094634 663076743#0 663076743#1 397646589 231094851#0 231094851#1 231094851#2 663076775#0 663076775#1 231095194 663076772 663076696 663076698#0 663076698#1 663076698#2 663076698#3 663076698#4 663076698#5 663076698#6 1154846447#4 223784230#0 223784230#1 223784230#2 223784230#3 223784230#4 223784230#5 223784230#6 223784230#7 223784230#8 223784230#9 223784230#10 223784230#11 223784230#12 223784230#13 223784230#14 160737026#0 160737026#1 160737026#2 1004633181#0 1004633181#1 382423717#0"/>
    </vehicle>
    <vehicle id="29" depart="29.00">
        <route edges="659237713#1 685150642 1409280538 706220872#0 69966122#1 706220880#0 397773658#0 397773658#1 397773658#2 397773658#3 124792701#0 124792701#1 115672722#0 682951621#0 682951621#2 682951621#3 33037131#0 33037131#1 33037131#2 912642299#0 -46208620#2 -46208620#1 53813393#5 359607745#0 359607745#1 52707339 231807292#5 231807292#6 231807292#7 231807292#8 231807292#9 231807292#10 231807292#11 1108070684#0 1108070684#1 1108070684#2 1108070684#3 1108070684#4 1108070684#6 277739817#1 277739817#2 277739817#3 277739817#4 1346157041#1 1346157041#2 1346157041#3 1346157041#5 1346157041#7 1346157041#8 1346157041#9 48310676#0 48310676#1 48310676#2 48310676#3"/>
    </vehicle>
    <vehicle id="30" depart="30.00">
        <route edges="121846101#0 121846101#1 121846083 452336641 166954401 129307813 641403915#0 641403915#1 641403915#2 43547880#0 43547880#1 43547880#3 671169137 659237713#0 659237713#1 685150642 1409280538 706220872#0 69966122#1 706220880#0 397773658#0 397773658#1 397773658#2 397773658#3 124792701#0 124792701#1 115672722#0 682951621#0 682951621#2 682951621#3 397652163#2 397652163#3 701356188#4 701356188#5 758187577#0 758187577#1 758187577#2 913712326 -122741943#3 -122741943#2 -122741943#1 -122741943#0 758187584#0 758187584#1 -1066803874#0 -161307636#6 -161307636#5 -161307636#4 -161307636#3 -161307636#2 -161307636#1 -161307636#0 231256251 1107277576 397652152 231256250-AddedOnRampEdge 231256250 700028130 75366764#0 -610296172 1225561063#1 126274279#0 126274279#1 126274279#2 126274279#3 126274284#0 126274284#1 -126277926#0 -126274279#5"/>
    </vehicle>
    <vehicle id="31" depart="31.00">
        <route edges="158958941#3 659237713#0 659237713#1 685150642 1409280538 706220872#0 69966122#1 706220871#0 706220871#2 263504526#0 263504526#1 410037443 263504521#0 263504521#1 263504521#2 263504521#3 231107712#0 231107712#1 231107712#2 231107712#3 231107712#4 263504522#0 263504522#1 263504522#2 715606127 397459678#0 397459678#1 397459678#2 397459678#3 43593224#1 43593224#2 43593224#3 43593224#4 43593224#5 43593224#7 43593224#8 43593224#10 43593224#11 43593224#12 43593224#13 43593224#14 43593224#17 43593224#18 43593224#20 43593224#21 43593224#22 43593224#23 43593224#24 43593224#25 161392540#0 161392540#1 161392540#2 161392540#3 161392540#5 161392540#6 161392540#7 161392540#8 161392540#9 161392540#10 161392540#14 52707354#1 52707354#2 52707354#3 52707354#4 52707354#5 52707354#6 146610755#1 1107163544#0 1107163544#1 186780309#0 186780309#1 99449521#0 99449521#1 1107163543 -99449527#1 -99449527#0 474243695#0 474243695#1 99449517#6 99449517#7 99449517#8 99449517#9 -99449517#9"/>
    </vehicle>
    <vehicle id="32" depart="32.00">
        <route edges="663076698#9 663066018#4 663066018#5 358926102#4 358926102#5 44867748#0 44867748#1 44867748#2 44867748#4 44867748#5 44867748#6 44867748#7 44867748#8 44867748#9 125542086 685541544#0 685541544#1 685541544#2 685541544#3 663076695#0 663076695#1 663076695#2 663076700#0 663076700#1 663076700#2 263505507#1 263505507#2 263505507#3 1024709875#0 1024709875#1 1024709875#2 354612980#0 354612980#1 354612980#2 354612980#3 1024709874#0 1024709874#1 263505518 380939603#0 380939603#1 380939603#2 380939603#3 380939603#4 380939603#5 24576630#0 693645931 693645930#1 710565434#0 380939616#0 1126852475#1"/>
    </vehicle>
    <vehicle id="33" depart="33.00">
        <route edges="370094378#2 370094378#3 503876751#0 503876751#1 503876751#2 316394251#0 316394251#1 700183099#0 700183099#1 700183099#2 343540929#0 343540929#1 1339926516#0 1339926516#1"/>
    </vehicle>
    <vehicle id="34" depart="34.00">
        <route edges="664311321#0 1014985841#1 1014985840#0 706220886#0 706220886#1 706220886#2 706220880#0 397773658#0 397773658#1 397773658#2 397773658#3 124792701#0 124792701#1 115672722#0 682951621#0 682951621#2 682951621#3 397652163#2 397652163#3 701356188#4 701356188#5 758187577#0 758187577#1 758187577#2 913712326 -122741943#3 -122741943#2 -122741943#1 -122741943#0 758187584#0 758187584#1 -1066803874#0 -161307636#6 -161307636#5 -161307636#4 -161307636#3 -161307636#2 -161307636#1 -161307636#0 231256251 1107277576 397652152 231256250-AddedOnRampEdge 231256250 700028130 75366764#0 75366764#1 75366764#2 75366764#3 712664797 285877770#0 285877770#1 285877770#2 195718579 195718577#0 195718577#1 195718577#2 195718577#3 195718577#4"/>
    </vehicle>
    <vehicle id="35" depart="35.00">
        <route edges="127724111#0 127724111#1 231094153#0 1240342247 231092960#0 231092960#1 113798873 113798872#0 113798872#1 113798872#2 55200329#0 55200329#1 55200329#2 409826715#0 409826715#2 55200327#0 55200327#2 654376980#0 654376980#1 663076749#0 663076749#1 291468708#0 291468708#1 1268032602 291469317#0 913176816 231094423#1 231094423#2 397646588#0 397646588#1 397646588#2 397646588#3 397646588#4 397646588#5 231094634 663076743#0 663076743#1 397646589 231094851#0 231094851#1 231094851#2 663076775#0 663076775#1 231095199#0 231095199#1 663076771#0 663076771#1 663076771#2 663076771#3 663076771#4 231095766#0 231095766#1 663076767#0 663076767#1 231095762#0 231095762#1 231095762#2 1024709867#0 1024709867#1 1024709867#2 663076762#0 663076762#1 663076762#2 24586335 356132818#0 356132818#1 356132818#3 356132818#4 356132818#5 1008175881 758177650#0 758177650#1 758177650#4 231096127#1 231096127#4 231096127#5 1107163545#1 1107163545#2 39453104#0 39453104#1 39453104#2 39453104#3 39453104#4 39453104#5 522701665#1 522701665#2 356134841#0 -749651782"/>
    </vehicle>
    <vehicle id="36" depart="36.00">