<configuration>
    <input>
        <net-file value="../data/map/curitiba.net.xml"/>
        <route-files value="../data/traffic/random_peak.rou.xml"/>
    </input>
    <time>
        <begin value="0"/>
        <end value="3600"/>
    </time>
</configuration>
